geometry optimzed in LAMMPS
_audit_creation_date              2020-11-30 
_audit_creation_method            'lammps2cif' 
_symmetry_space_group_name_H-M    'P1' 
_symmetry_Int_Tables_number       1 
_symmetry_cell_setting            triclinic 
loop_ 
_symmetry_equiv_pos_as_xyz 
  x,y,z 
_cell_length_a                    50.99637994298066 
_cell_length_b                    50.531634315728716 
_cell_length_c                    40.32947056264358 
_cell_angle_alpha                 92.38795897774457 
_cell_angle_beta                  88.83119180641799 
_cell_angle_gamma                 121.15461033573136 
loop_ 
_atom_site_label 
_atom_site_type_symbol 
_atom_site_fract_x 
_atom_site_fract_y 
_atom_site_fract_z 
_atom_site_charge 
O1          O  0.44428802  0.41003703  0.34134448    -0.79820
O2          O  0.45595758  0.34462549  0.44757729    -0.79850
O3          O  0.36860649  0.33162214  0.40736248    -0.79860
O4          O  0.50074224  0.37884117  0.37827743    -0.79800
O5          O  0.40917043  0.34908234  0.43648427    -0.79920
O6          O  0.47223693  0.39872083  0.39198654    -0.79840
O7          O  0.48188978  0.32878567  0.41892255    -0.79820
O8          O  0.41097325  0.38623079  0.38018509    -0.79860
C9          C  0.42563750  0.41020126  0.36212138     1.09870
C10         C  0.47655062  0.33820997  0.44645569     1.09750
C11         C  0.38259224  0.34366561  0.43437257     1.09890
C12         C  0.49828667  0.40123342  0.39070656     1.09770
O13         O  0.47387241  0.38085696  0.32540197    -0.79830
O14         O  0.37490510  0.28531492  0.40784187    -0.79900
O15         O  0.36684041  0.34155079  0.34100286    -0.79840
O16         O  0.44276748  0.28782601  0.36710385    -0.79820
O17         O  0.42477843  0.28160545  0.41822737    -0.79870
O18         O  0.41031867  0.35187617  0.31758151    -0.79840
O19         O  0.46434515  0.33400086  0.32421380    -0.79790
O20         O  0.37718519  0.29576300  0.35532549    -0.79860
Co21       Co  0.44112037  0.37388722  0.35757429     1.51530
Co22       Co  0.41694678  0.31659563  0.42564023     1.51690
Co23       Co  0.39624080  0.33971401  0.36720306     1.51570
Co24       Co  0.46998130  0.33269137  0.37212665     1.51470
O25         O  0.43274250  0.33680449  0.38240684    -1.41760
C26         C  0.47691564  0.35989103  0.31131413     1.09790
C27         C  0.36411281  0.27736046  0.37845972     1.09880
C28         C  0.38270556  0.34684921  0.31485357     1.09820
C29         C  0.42992536  0.27076304  0.39147231     1.09790
O30         O  0.45114521  0.10902593  0.31448796    -0.79820
O31         O  0.43374741  0.04489717  0.36748747    -0.79850
O32         O  0.98748735  0.10675098  0.37579376    -0.79860
O33         O  0.35589086  0.03200127  0.34144281    -0.79800
O34         O  0.47555044  0.07512325  0.41611495    -0.79920
O35         O  0.39673250  0.05840997  0.31104880    -0.79840
O36         O  0.38678047  0.01728727  0.38560682    -0.79820
O37         O  0.47647046  0.14998565  0.34532870    -0.79860
C38         C  0.47272231  0.13666090  0.31710440     1.09870
C39         C  0.41086668  0.01872258  0.37350358     1.09750
C40         C  0.99489273  0.09146787  0.39499445     1.09890
C41         C  0.37081695  0.03477871  0.31494821     1.09770
O42         O  0.36653719  0.09000956  0.33756159    -0.79830
O43         O  0.45702247  0.11411236  0.43618831    -0.79900
O44         O  0.43445982  0.14460242  0.39679377    -0.79840
O45         O  0.38240808  0.05943875  0.43559254    -0.79820
O46         O  0.41908404  0.05024850  0.43468558    -0.79870
O47         O  0.42249730  0.14234296  0.34450868    -0.79840
O48         O  0.35675237  0.07657403  0.38969422    -0.79790
O49         O  0.49154079  0.15570603  0.41028338    -0.79860
Co50       Co  0.40988471  0.09914342  0.32922884     1.51530
Co51       Co  0.44402249  0.07923337  0.39927408     1.51690
Co52       Co  0.45767848  0.12408547  0.38618823     1.51570
Co53       Co  0.37354111  0.04926685  0.38755724     1.51470
O54         O  0.41571403  0.08640911  0.37375492    -1.41760
C55         C  0.35085998  0.08598567  0.36401099     1.09790
C56         C  0.48162781  0.14137964  0.43692475     1.09880
C57         C  0.42524862  0.15398972  0.37372650     1.09820
C58         C  0.39629394  0.04845476  0.44954675     1.09790
O59         O  0.03771521  0.41577476  0.12438018    -0.79820
O60         O  0.16566670  0.48476489  0.08403730    -0.79850
O61         O  0.08888994  0.47702965  0.11458103    -0.79860
O62         O  0.06951051  0.40663562  0.06064382    -0.79800
O63         O  0.13714625  0.50435240  0.12986002    -0.79920
O64         O  0.04512940  0.36989661  0.09516351    -0.79840
O65         O  0.12553250  0.45663340  0.05179784    -0.79820
O66         O  0.04861698  0.45020519  0.16485153    -0.79860
C67         C  0.02915435  0.43069697  0.14425768     1.09870
C68         C  0.15203981  0.47979254  0.05647892     1.09750
C69         C  0.11245596  0.50299183  0.12064667     1.09890
C70         C  0.04776126  0.37981296  0.06621312     1.09770
O71         O  0.08925748  0.37819761  0.14388170    -0.79830
O72         O  0.14204083  0.46285205  0.17725971    -0.79900
O73         O  0.07141834  0.41542138  0.18423724    -0.79840
O74         O  0.15388467  0.42544186  0.07970492    -0.79820
O75         O  0.16537599  0.44325474  0.13139517    -0.79870
O76         O  0.03418365  0.37188942  0.16242624    -0.79840
O77         O  0.09715001  0.37491411  0.09049752    -0.79790
O78         O  0.10989688  0.47824874  0.18084591    -0.79860
Co79       Co  0.06680999  0.39926590  0.13456156     1.51530
Co80       Co  0.14973564  0.47136854  0.13015229     1.51690
Co81       Co  0.08101582  0.44589216  0.14659246     1.51570
Co82       Co  0.11092113  0.41714832  0.07321658     1.51470
O83         O  0.10714111  0.43502694  0.11784886    -1.41760
C84         C  0.09369403  0.36437589  0.11954949     1.09790
C85         C  0.13281868  0.47833016  0.19253745     1.09880
C86         C  0.04621430  0.38938051  0.18797192     1.09820
C87         C  0.16946984  0.43053531  0.10602990     1.09790
O88         O  0.17517206  0.15907771  0.34233995    -0.79820
O89         O  0.12161156  0.02919790  0.37630278    -0.79850
O90         O  0.20455111  0.08532276  0.31374233    -0.79860
O91         O  0.12400094  0.09427210  0.41932299    -0.79800
O92         O  0.15767959  0.05271735  0.32574117    -0.79920
O93         O  0.12909957  0.10359337  0.36577492    -0.79840
O94         O  0.12430090  0.04050267  0.42950011    -0.79820
O95         O  0.17910921  0.12137330  0.31803851    -0.79860
C96         C  0.17315051  0.14321648  0.31628138     1.09870
C97         C  0.11001059  0.02264409  0.40457854     1.09750
C98         C  0.17938145  0.06104125  0.30597777     1.09890
C99         C  0.11357871  0.09784861  0.39241009     1.09770
O100        O  0.16883305  0.15050817  0.40961043    -0.79830
O101        O  0.21028286  0.05937829  0.36321832    -0.79900
O102        O  0.24000719  0.14782541  0.32991049    -0.79840
O103        O  0.18997186  0.07920683  0.44485399    -0.79820
O104        O  0.17161243  0.03529904  0.41666334    -0.79870
O105        O  0.22148882  0.15866668  0.37476898    -0.79840
O106        O  0.18770238  0.13098379  0.44027358    -0.79790
O107        O  0.23485754  0.10893745  0.37724276    -0.79860
Co108      Co  0.17441433  0.12840254  0.36923730     1.51530
Co109      Co  0.16557616  0.04670511  0.37084625     1.51690
Co110      Co  0.20606787  0.11485138  0.35081842     1.51570
Co111      Co  0.15789817  0.08673473  0.43105001     1.51470
O112        O  0.17293517  0.08942929  0.38375186    -1.41760
C113        C  0.17657395  0.14799648  0.43828500     1.09790
C114        C  0.23516167  0.08436966  0.37101261     1.09880
C115        C  0.24381178  0.16644181  0.35397661     1.09820
C116        C  0.18490692  0.05211242  0.44253653     1.09790
O117        O  0.03304951  0.11868715  0.16455868    -0.79820
O118        O  0.13112737  0.20478502  0.06594520    -0.79850
O119        O  0.04528298  0.16529454  0.07104953    -0.79860
O120        O  0.13219645  0.14024018  0.12643078    -0.79800
O121        O  0.08171977  0.21266447  0.06204127    -0.79920
O122        O  0.08243025  0.11742511  0.13533032    -0.79840
O123        O  0.10811651  0.15599789  0.07711214    -0.79820
O124        O  0.02531370  0.12486162  0.11401210    -0.79860
C125        C  0.01658751  0.10854699  0.13881976     1.09870
C126        C  0.12406928  0.17733033  0.05723104     1.09750
C127        C  0.05870490  0.18709115  0.05200861     1.09890
C128        C  0.10664709  0.11553716  0.12988177     1.09770
O129        O  0.08381132  0.13417578  0.19976088    -0.79830
O130        O  0.09615772  0.24057219  0.12995874    -0.79900
O131        O  0.02925926  0.16987483  0.16555860    -0.79840
O132        O  0.15719390  0.20207375  0.11862846    -0.79820
O133        O  0.14206915  0.23288609  0.13484925    -0.79870
O134        O  0.06974401  0.17869087  0.19333686    -0.79840
O135        O  0.12519110  0.17237501  0.17696473    -0.79790
O136        O  0.04823251  0.21346911  0.11483338    -0.79860
Co137      Co  0.07794685  0.15175020  0.16253854     1.51530
Co138      Co  0.11125281  0.22034565  0.10014819     1.51690
Co139      Co  0.04005687  0.16916417  0.11724079     1.51570
Co140      Co  0.11425697  0.16470370  0.12580641     1.51470
O141        O  0.08420798  0.17984972  0.12437985    -1.41760
C142        C  0.11243091  0.15300097  0.20075565     1.09790
C143        C  0.07186175  0.23938272  0.12308481     1.09880
C144        C  0.04308676  0.17498723  0.19317968     1.09820
C145        C  0.16376439  0.22918177  0.12733311     1.09790
O146        O  0.39796604  0.42064237  0.16383582    -0.79820
O147        O  0.34410420  0.44281788  0.05515201    -0.79850
O148        O  0.33560736  0.35340487  0.08760102    -0.79860
O149        O  0.38022307  0.48209816  0.11653367    -0.79800
O150        O  0.34785543  0.39306101  0.05733435    -0.79920
O151        O  0.39890248  0.47244701  0.15814456    -0.79840
O152        O  0.33189146  0.46999004  0.08859164    -0.79820
O153        O  0.38584104  0.39443876  0.11816736    -0.79860
C154        C  0.40457963  0.40720057  0.14151364     1.09870
C155        C  0.34365708  0.46728512  0.06148487     1.09750
C156        C  0.34492808  0.36721248  0.06032874     1.09890
C157        C  0.40264243  0.48939368  0.13438689     1.09770
O158        O  0.33548049  0.44359745  0.18469430    -0.79830
O159        O  0.28807862  0.35807489  0.08752619    -0.79900
O160        O  0.34427975  0.35204154  0.15936083    -0.79840
O161        O  0.29283715  0.42519846  0.13800793    -0.79820
O162        O  0.28555281  0.41083145  0.08569024    -0.79870
O163        O  0.33718550  0.38679732  0.18654815    -0.79840
O164        O  0.33895860  0.48353531  0.16029895    -0.79790
O165        O  0.29799457  0.35958043  0.13998746    -0.79860
Co166      Co  0.36471124  0.42972870  0.16776505     1.51530
Co167      Co  0.31822949  0.40215744  0.07457088     1.51690
Co168      Co  0.34235890  0.37957586  0.12995915     1.51570
Co169      Co  0.33793627  0.45230123  0.12984246     1.51470
O170        O  0.34507540  0.41810481  0.11671861    -1.41760
C171        C  0.33988308  0.47112474  0.18683651     1.09790
C172        C  0.28011995  0.34626503  0.11589018     1.09880
C173        C  0.34299618  0.36464649  0.18700227     1.09820
C174        C  0.27612189  0.41687217  0.11232965     1.09790
C175        C  0.48736733  0.07800665  0.13661019    -0.05030
C176        C  0.48612563  0.05112702  0.14674792    -0.02140
C177        C  0.46001071  0.02187445  0.14004128     0.02850
C178        C  0.43244902  0.01907135  0.12965098    -0.05020
C179        C  0.43337470  0.04608027  0.11952554    -0.02130
C180        C  0.46121714  0.07498302  0.12095813     0.02840
C181        C  0.01190642  0.05301188  0.16318255     0.37490
C182        C  0.40574221  0.04485341  0.10900988     0.37480
C183        C  0.46254409  0.10159007  0.10678007     0.35910
C184        C  0.46283836  0.99501854  0.14068158     0.35910
N185        N  0.46364519  0.12265980  0.09504106    -0.38910
N186        N  0.46723747  0.47481187  0.13960614    -0.38910
N187        N  0.38384573  0.04436372  0.10096254    -0.38360
N188        N  0.03200852  0.05363128  0.17652447    -0.38360
C189        C  0.19460438  0.25751025  0.12306022    -0.05030
C190        C  0.19721462  0.28110068  0.10307555    -0.02140
C191        C  0.22467830  0.30990807  0.10139112     0.02850
C192        C  0.25060468  0.31595979  0.11973033    -0.05020
C193        C  0.24809133  0.29214098  0.13985802    -0.02130
C194        C  0.22026268  0.26308098  0.14124468     0.02840
C195        C  0.17144332  0.27585149  0.08366980     0.37490
C196        C  0.27370103  0.29636902  0.15902741     0.37480
C197        C  0.21773986  0.23912497  0.16206850     0.35910
C198        C  0.22555697  0.33356428  0.08125060     0.35910
N199        N  0.21577125  0.22001750  0.17863653    -0.38910
N200        N  0.22573981  0.35196352  0.06493431    -0.38910
N201        N  0.29264652  0.29735359  0.17523986    -0.38360
N202        N  0.15113652  0.27213914  0.06792998    -0.38360
C203        C  0.16006889  0.14664887  0.28520342    -0.05030
C204        C  0.16867262  0.17609690  0.27339487    -0.02140
C205        C  0.15362598  0.17859977  0.24552816     0.02850
C206        C  0.13025762  0.15165277  0.22893486    -0.05020
C207        C  0.12272824  0.12234645  0.24023645    -0.02130
C208        C  0.13686064  0.11985770  0.26846122     0.02840
C209        C  0.19281942  0.20382142  0.29007055     0.37490
C210        C  0.10093566  0.09401371  0.22258171     0.37480
C211        C  0.12552500  0.08935533  0.28143909     0.35910
C212        C  0.16128018  0.20884814  0.23497693     0.35910
N213        N  0.11574365  0.06484901  0.29142646    -0.38910
N214        N  0.16733777  0.23301256  0.22662831    -0.38910
N215        N  0.08424078  0.07048969  0.20956229    -0.38360
N216        N  0.21209448  0.22591763  0.30343984    -0.38360
C217        C  0.16518767  0.15724043  0.46897484    -0.05030
C218        C  0.14938005  0.13529345  0.99351720    -0.02140
C219        C  0.13409429  0.14114230  0.01976815     0.02850
C220        C  0.13689944  0.17043342  0.02537094    -0.05020
C221        C  0.15331885  0.19282236  0.00082722    -0.02130
C222        C  0.16648932  0.18589893  0.47256528     0.02840
C223        C  0.14672789  0.10519369  0.99139020     0.37490
C224        C  0.15575646  0.22266346  0.00320937     0.37480
C225        C  0.18186166  0.20860395  0.44732944     0.35910
C226        C  0.11297619  0.11493376  0.03847122     0.35910
N227        N  0.19408816  0.22672617  0.42716393    -0.38910
N228        N  0.09558448  0.09217449  0.05058714    -0.38910
N229        N  0.15796232  0.24664455  0.00412889    -0.38360
N230        N  0.14350806  0.08078457  0.49119775    -0.38360
C231        C  0.18901057  0.03823572  0.47267437    -0.05030
C232        C  0.19095066  0.05174605  0.00478237    -0.02140
C233        C  0.18001995  0.03289670  0.03263189     0.02850
C234        C  0.16782742  0.50070350  0.02859941    -0.05020
C235        C  0.17123601  0.48863852  0.49755141    -0.02130
C236        C  0.18398131  0.50813207  0.47043887     0.02840
C237        C  0.20442488  0.08492045  0.00956824     0.37490
C238        C  0.16170114  0.45628554  0.49318421     0.37480
C239        C  0.19410892  0.49829602  0.44115177     0.35910
C240        C  0.17966024  0.04662202  0.06478673     0.35910
N241        N  0.20264066  0.49071229  0.41792028    -0.38910
N242        N  0.17980471  0.05843879  0.09002492    -0.38910
N243        N  0.15445492  0.43057376  0.48931069    -0.38360
N244        N  0.21532193  0.11138160  0.01360859    -0.38360
C245        C  0.17465891  0.03997197  0.27681502    -0.05030
C246        C  0.15749670  0.00748782  0.28102033    -0.02140
C247        C  0.14527096  0.48688444  0.25329495     0.02850
C248        C  0.15072634  0.49859775  0.22133074    -0.05020
C249        C  0.17393586  0.02989687  0.21710091    -0.02130
C250        C  0.18452017  0.05101494  0.24473004     0.02840
C251        C  0.15274838  0.49514971  0.31386508     0.37490
C252        C  0.18644865  0.04055987  0.18449556     0.37480
C253        C  0.20382654  0.08394387  0.23991535     0.35910
C254        C  0.12791928  0.45370935  0.25753293     0.35910
N255        N  0.21911584  0.11026091  0.23610652    -0.38910
N256        N  0.11433721  0.42724523  0.26092066    -0.38910
N257        N  0.19717325  0.04947510  0.15878571    -0.38360
N258        N  0.14918568  0.48519829  0.33998154    -0.38360
C259        C  0.10950101  0.03114248  0.12247544    -0.05030
C260        C  0.12634506  0.05470057  0.14657753    -0.02140
C261        C  0.12882744  0.08346880  0.14456188     0.02850
C262        C  0.10569377  0.08544183  0.12815601    -0.05020
C263        C  0.08232747  0.05840528  0.11143769    -0.02130
C264        C  0.08616636  0.03267050  0.10548318     0.02840
C265        C  0.12703274  0.04578357  0.17987101     0.37490
C266        C  0.05503620  0.05708717  0.09944932     0.37480
C267        C  0.06553545  0.00776933  0.08280087     0.35910
C268        C  0.15261665  0.10945456  0.16391119     0.35910
N269        N  0.04900675  0.48797560  0.06463563    -0.38910
N270        N  0.17176944  0.13005788  0.17925714    -0.38910
N271        N  0.03342754  0.05592354  0.08915504    -0.38360
N272        N  0.12462980  0.03963942  0.20749568    -0.38360
C273        C  0.09079584  0.33340528  0.12322369    -0.05030
C274        C  0.09965334  0.32075679  0.09650053    -0.02140
C275        C  0.08975669  0.28908009  0.09477749     0.02850
C276        C  0.07367146  0.26973207  0.12147814    -0.05020
C277        C  0.06774287  0.28301736  0.14996123    -0.02130
C278        C  0.07620857  0.31463319  0.15094568     0.02840
C279        C  0.12092059  0.34066411  0.07144953     0.37490
C280        C  0.05361797  0.26425743  0.17863093     0.37480
C281        C  0.07201190  0.32807961  0.18151972     0.35910
C282        C  0.09616957  0.27713614  0.06444937     0.35910
N283        N  0.06941655  0.33888152  0.20631352    -0.38910
N284        N  0.10161037  0.27002574  0.03875176    -0.38910
N285        N  0.04237520  0.24924500  0.20147448    -0.38360
N286        N  0.13811418  0.35635437  0.05165284    -0.38360
C287        C  0.19493773  0.42413737  0.10672595    -0.05030
C288        C  0.21663788  0.43431787  0.08092885    -0.02140
C289        C  0.24165881  0.42988010  0.08197216     0.02850
C290        C  0.24741979  0.41811770  0.11066739    -0.05020
C291        C  0.22575721  0.40797231  0.13666779    -0.02130
C292        C  0.19930625  0.41034616  0.13439063     0.02840
C293        C  0.21519593  0.45218519  0.05455127     0.37490
C294        C  0.22993841  0.39381542  0.16501774     0.37480
C295        C  0.17639030  0.39825840  0.16039820     0.35910
C296        C  0.26129729  0.43774909  0.05292169     0.35910
N297        N  0.15803088  0.38854898  0.18107375    -0.38910
N298        N  0.27617406  0.44338214  0.02922458    -0.38910
N299        N  0.23329812  0.38243556  0.18757378    -0.38360
N300        N  0.21532406  0.46728902  0.03372059    -0.38360
C301        C  0.49684595  0.42410529  0.14380432    -0.05030
C302        C  0.48326349  0.42836000  0.17307132    -0.02140
C303        C  0.45200086  0.41917170  0.17350641     0.02850
C304        C  0.43406127  0.40728922  0.14413752    -0.05020
C305        C  0.44621954  0.39855499  0.11711769    -0.02130
C306        C  0.47795543  0.40983496  0.11548968     0.02840
C307        C  0.50119997  0.44405108  0.20262300     0.37490
C308        C  0.42584819  0.37387335  0.09419593     0.37480
C309        C  0.49135718  0.40993274  0.08346409     0.35910
C310        C  0.43843016  0.42157533  0.20473129     0.35910
N311        N  0.50208695  0.41099660  0.05762608    -0.38910
N312        N  0.42775816  0.42343037  0.22968461    -0.38910
N313        N  0.40971140  0.35314557  0.07675383    -0.38360
N314        N  0.01430651  0.45724261  0.22659563    -0.38360
C315        C  0.50003034  0.15450741  0.46751241    -0.05030
C316        C  0.01393230  0.18615091  0.47698644    -0.02140
C317        C  0.03306533  0.19770629  0.00533507     0.02850
C318        C  0.04483713  0.18028680  0.01844913    -0.05020
C319        C  0.03328411  0.14967166  0.00552056    -0.02130
C320        C  0.00761888  0.13588125  0.48481083     0.02840
C321        C  0.00610343  0.20588437  0.46002219     0.37490
C322        C  0.04487902  0.13067029  0.01672409     0.37480
C323        C  0.48656104  0.10281486  0.48586332     0.35910
C324        C  0.03467762  0.22358376  0.02394012     0.35910
N325        N  0.46886474  0.07679325  0.48869105    -0.38910
N326        N  0.03357461  0.24325700  0.03838158    -0.38910
N327        N  0.05338717  0.11490995  0.02554494    -0.38360
N328        N  0.50020385  0.22189928  0.44647779    -0.38360
C329        C  0.02541572  0.17141584  0.22541758    -0.05030
C330        C  0.99270642  0.15383893  0.22541584    -0.02140
C331        C  0.47597818  0.14430829  0.25539493     0.02850
C332        C  0.49107249  0.15237353  0.28648468    -0.05020
C333        C  0.02313708  0.17357166  0.28700289    -0.02130
C334        C  0.04026172  0.18240134  0.25679940     0.02840
C335        C  0.47530172  0.14436411  0.19473418     0.37490
C336        C  0.03876525  0.18555906  0.31857669     0.37480
C337        C  0.07320508  0.20298791  0.25828775     0.35910
C338        C  0.44264625  0.12625222  0.25401451     0.35910
N339        N  0.09950887  0.21949179  0.25959692    -0.38910
N340        N  0.41614879  0.11183248  0.25285428    -0.38910
N341        N  0.05124630  0.19514603  0.34378548    -0.38360
N342        N  0.46072606  0.13670308  0.17076014    -0.38360
C343        C  0.38467781  0.03092385  0.48116572    -0.05030
C344        C  0.36219953  0.03224365  0.50162587    -0.02140
C345        C  0.34912535  0.01256177  0.02900127     0.02850
C346        C  0.35969561  0.49281797  0.03745418    -0.05020
C347        C  0.38528459  0.49542280  0.02028374    -0.02130
C348        C  0.39548547  0.01150000  0.49077178     0.02840
C349        C  0.35192085  0.05331811  0.49456569     0.37490
C350        C  0.40252914  0.48288883  0.03395467     0.37480
C351        C  0.41494440  0.00511510  0.46932885     0.35910
C352        C  0.32515173  0.01300242  0.04847370     0.35910
N353        N  0.42972396  0.99906435  0.45219245    -0.38910
N354        N  0.30618223  0.01366149  0.06407657    -0.38910
N355        N  0.41689840  0.47378393  0.04522208    -0.38360
N356        N  0.34356558  0.07008651  0.48920666    -0.38360
C357        C  0.34594936  0.48716953  0.22004355    -0.05030
C358        C  0.37585752  0.00179744  0.23293535    -0.02140
C359        C  0.38151056  0.01045241  0.26650943     0.02850
C360        C  0.35918932  0.01178352  0.28642865    -0.05020
C361        C  0.32884906  0.99737753  0.27408348    -0.02130
C362        C  0.32206331  0.48402212  0.24122471     0.02840
C363        C  0.40247409  0.01286281  0.21206627     0.37490
C364        C  0.30489762  0.99653952  0.29471596     0.37480
C365        C  0.29098584  0.46851891  0.22868334     0.35910
C366        C  0.41184934  0.02077602  0.27945656     0.35910
N367        N  0.26617509  0.45628148  0.21860236    -0.38910
N368        N  0.43656310  0.02969899  0.28820362    -0.38910
N369        N  0.28566974  0.99570501  0.31122549    -0.38360
N370        N  0.42632766  0.02500091  0.19973490    -0.38360
C371        C  0.02487335  0.09214618  0.39331001    -0.05030
C372        C  0.03294396  0.07845345  0.41840953    -0.02140
C373        C  0.06209879  0.08163218  0.41893890     0.02850
C374        C  0.08359403  0.09700455  0.39334036    -0.05020
C375        C  0.07582328  0.11122374  0.36889308    -0.02130
C376        C  0.04625612  0.10713923  0.36774250     0.02840
C377        C  0.01109946  0.05869525  0.44296665     0.37490
C378        C  0.09874140  0.13317987  0.34682157     0.37480
C379        C  0.03717559  0.11564989  0.33814257     0.35910
C380        C  0.06887562  0.06740619  0.44555341     0.35910
N381        N  0.02991977  0.12112569  0.31361126    -0.38910
N382        N  0.07370223  0.05581390  0.46683229    -0.38910
N383        N  0.11594289  0.15205735  0.32946168    -0.38360
N384        N  0.99490360  0.04212848  0.46281544    -0.38360
C385        C  0.32316512  0.08932608  0.36451993    -0.05030
C386        C  0.31446985  0.09923495  0.39400228    -0.02140
C387        C  0.28577228  0.09740365  0.39623644     0.02850
C388        C  0.26523596  0.08566833  0.36911734    -0.05020
C389        C  0.27453530  0.07713648  0.33920820    -0.02130
C390        C  0.30342293  0.07954940  0.33670553     0.02840
C391        C  0.33549565  0.11243419  0.42184946     0.37490
C392        C  0.25484623  0.06614733  0.31028753     0.37480
C393        C  0.31250721  0.07167741  0.30521742     0.35910
C394        C  0.27692566  0.10666539  0.42695546     0.35910
N395        N  0.31979127  0.06579136  0.27993156    -0.38910
N396        N  0.26979201  0.11395927  0.45147118    -0.38910
N397        N  0.24029206  0.05712410  0.28631637    -0.38360
N398        N  0.35228120  0.12317744  0.44404541    -0.38360
C399        C  0.02770420  0.36053698  0.03784326    -0.05030
C400        C  0.49566753  0.34657529  0.03922294    -0.02140
C401        C  0.47850978  0.33781290  0.00940371     0.02850
C402        C  0.49319616  0.34114259  0.47805867    -0.05020
C403        C  0.02388416  0.34828174  0.47790213    -0.02130
C404        C  0.04127095  0.35886546  0.50750435     0.02840
C405        C  0.48049079  0.34156993  0.07112523     0.37490
C406        C  0.03744283  0.34379560  0.44793609     0.37480
C407        C  0.07298439  0.36692797  0.50708584     0.35910
C408        C  0.44562996  0.32476564  0.01127024     0.35910
N409        N  0.09813645  0.37286604  0.50684437    -0.38910
N410        N  0.41940414  0.31433504  0.01271099    -0.38910
N411        N  0.04820144  0.33917709  0.42454621    -0.38360
N412        N  0.46836336  0.33725199  0.09661125    -0.38360
C413        C  0.49654073  0.36648169  0.28116169    -0.05030
C414        C  0.49218119  0.34265787  0.25798034    -0.02140
C415        C  0.00878020  0.34987756  0.22794303     0.02850
C416        C  0.03107247  0.38096955  0.22118382    -0.05020
C417        C  0.03695773  0.40445379  0.24567946    -0.02130
C418        C  0.02029867  0.39717265  0.27550957     0.02840
C419        C  0.47081406  0.31041545  0.26453580     0.37490
C420        C  0.05854012  0.43690843  0.24026051     0.37480
C421        C  0.02863482  0.42173527  0.30071733     0.35910
C422        C  0.00218522  0.32490016  0.20397184     0.35910
N423        N  0.03565934  0.44160554  0.32039297    -0.38910
N424        N  0.99661662  0.30484333  0.18499302    -0.38910
N425        N  0.07476054  0.46327427  0.23770085    -0.38360
N426        N  0.45422796  0.28443586  0.26904939    -0.38360
C427        C  0.41385070  0.49037507  0.36961799    -0.05030
C428        C  0.39118862  0.46138364  0.38223109    -0.02140
C429        C  0.39543174  0.43572207  0.38096601     0.02850
C430        C  0.42172928  0.43781405  0.36570252    -0.05020
C431        C  0.44419711  0.46658874  0.35275730    -0.02130
C432        C  0.44086743  0.49262037  0.35571689     0.02840
C433        C  0.36354855  0.45761047  0.39771496     0.37490
C434        C  0.47187325  0.47038094  0.33705056     0.37480
C435        C  0.46638169  0.02169919  0.34458214     0.35910
C436        C  0.37217508  0.40712099  0.39544482     0.35910
N437        N  0.48714607  0.04422078  0.33502677    -0.38910
N438        N  0.35331659  0.38459139  0.40720101    -0.38910
N439        N  0.49391811  0.47367529  0.32445271    -0.38360
N440        N  0.34148818  0.45438132  0.41020370    -0.38360
C441        C  0.42275208  0.23812618  0.38888831    -0.05030
C442        C  0.42610005  0.22368446  0.41644177    -0.02140
C443        C  0.42415184  0.19480900  0.41217537     0.02850
C444        C  0.42041872  0.18072582  0.37992084    -0.05020
C445        C  0.41367249  0.19371249  0.35316487    -0.02130
C446        C  0.41458761  0.22191909  0.35783300     0.02840
C447        C  0.43310603  0.23903354  0.44908943     0.37490
C448        C  0.40609917  0.17877166  0.32024918     0.37480
C449        C  0.40714963  0.23417772  0.33009388     0.35910
C450        C  0.42590237  0.17991747  0.44137222     0.35910
N451        N  0.40127777  0.24339746  0.30742126    -0.38910
N452        N  0.42715772  0.16812086  0.46479319    -0.38910
N453        N  0.40018222  0.16716339  0.29392718    -0.38360
N454        N  0.43870399  0.25120881  0.47513069    -0.38360
C455        C  0.08119262  0.49195822  0.40780131    -0.05030
C456        C  0.08258762  0.46474587  0.40770085    -0.02140
C457        C  0.05609690  0.43534697  0.40116596     0.02850
C458        C  0.02662259  0.43190171  0.40042703    -0.05020
C459        C  0.02541084  0.45936567  0.40459413    -0.02130
C460        C  0.05241228  0.48862117  0.40284604     0.02840
C461        C  0.11172547  0.46670126  0.41031931     0.37490
C462        C  0.99697615  0.45877204  0.40984122     0.37480
C463        C  0.05032431  0.01280782  0.38754896     0.35910
C464        C  0.06032705  0.40974440  0.39203910     0.35790
N465        N  0.04733599  0.03008341  0.37256941    -0.38910
N466        N  0.06450128  0.39013332  0.38330608    -0.38910
N467        N  0.47508836  0.45968771  0.41513992    -0.38360
N468        N  0.13409175  0.46630280  0.41175313    -0.38360
C469        C  0.33396006  0.24819579  0.37209947    -0.05030
C470        C  0.32511661  0.23468647  0.33961109    -0.02140
C471        C  0.29664527  0.20717003  0.33410045     0.02850
C472        C  0.27439631  0.19531378  0.35975752    -0.05020
C473        C  0.28220359  0.21090122  0.39134433    -0.02130
C474        C  0.31234408  0.23517085  0.39813642     0.02840
C475        C  0.34429016  0.24932336  0.31105934     0.37490
C476        C  0.25955248  0.20334473  0.41729189     0.37480
C477        C  0.32027871  0.24685424  0.43227722     0.35910
C478        C  0.29058302  0.19176187  0.30147936     0.35910
N479        N  0.32636811  0.25563987  0.45961954    -0.38910
N480        N  0.28620421  0.17940721  0.27559606    -0.38910
N481        N  0.24238174  0.19890210  0.43858908    -0.38360
N482        N  0.35860858  0.26092272  0.28770383    -0.38360
C483        C  0.37028461  0.35111283  0.46449756    -0.05030
C484        C  0.33976833  0.33196789  0.47511479    -0.02140
C485        C  0.33188278  0.33420446  0.50857388     0.02850
C486        C  0.35432818  0.35619634  0.03096886    -0.05020
C487        C  0.38410679  0.37694626  0.01925285    -0.02130
C488        C  0.39183445  0.37479716  0.48636465     0.02840
C489        C  0.31630120  0.31153149  0.45141052     0.37490
C490        C  0.40655574  0.40259747  0.04028020     0.37480
C491        C  0.42238094  0.39772819  0.47519865     0.35910
C492        C  0.30031393  0.31559368  0.51934348     0.35910
N493        N  0.44699658  0.41578487  0.96715639    -0.38910
N494        N  0.27509841  0.30086985  0.52790483    -0.38910
N495        N  0.42490019  0.42322997  0.05629398    -0.38360
N496        N  0.29740129  0.29569613  0.43236981    -0.38360
C497        C  0.36967819  0.34761008  0.28196486    -0.05030
C498        C  0.37946963  0.34002155  0.25188173    -0.02140
C499        C  0.36945032  0.34379837  0.22090164     0.02850
C500        C  0.34913203  0.35507010  0.21935413    -0.05020
C501        C  0.33761099  0.36052603  0.24943822    -0.02130
C502        C  0.34805239  0.35728180  0.28035107     0.02840
C503        C  0.39980638  0.32801241  0.25243738     0.37490
C504        C  0.31484571  0.36961822  0.24891813     0.37480
C505        C  0.33718969  0.36546629  0.31031723     0.35910
C506        C  0.38135582  0.33713145  0.19074428     0.35910
N507        N  0.32808114  0.37204490  0.33379669    -0.38910
N508        N  0.39092135  0.33167946  0.16685572    -0.38910
N509        N  0.29678536  0.37695499  0.24860528    -0.38360
N510        N  0.41590013  0.31824631  0.25247486    -0.38360
O511        O  0.44428798  0.41003700  0.84134451    -0.79820
O512        O  0.45595747  0.34462538  0.94757731    -0.79850
O513        O  0.36860642  0.33162207  0.90736244    -0.79860
O514        O  0.50074218  0.37884111  0.87827745    -0.79800
O515        O  0.40917034  0.34908224  0.93648425    -0.79920
O516        O  0.47223687  0.39872077  0.89198656    -0.79840
O517        O  0.48188971  0.32878561  0.91892255    -0.79820
O518        O  0.41097321  0.38623075  0.88018512    -0.79860
C519        C  0.42563746  0.41020123  0.86212142     1.09870
C520        C  0.47655054  0.33820989  0.94645569     1.09750
C521        C  0.38259216  0.34366553  0.93437254     1.09890
C522        C  0.49828661  0.40123336  0.89070658     1.09770
O523        O  0.47387238  0.38085694  0.82540198    -0.79830
O524        O  0.37490505  0.28531485  0.90784176    -0.79900
O525        O  0.36684038  0.34155078  0.84100284    -0.79840
O526        O  0.44276744  0.28782596  0.86710381    -0.79820
O527        O  0.42477836  0.28160538  0.91822732    -0.79870
O528        O  0.41031864  0.35187616  0.81758150    -0.79840
O529        O  0.46434512  0.33400084  0.82421379    -0.79790
O530        O  0.37718517  0.29576299  0.85532539    -0.79860
Co531      Co  0.44112032  0.37388718  0.85757430     1.51530
Co532      Co  0.41694670  0.31659553  0.92564019     1.51690
Co533      Co  0.39624076  0.33971398  0.86720304     1.51570
Co534      Co  0.46998125  0.33269132  0.87212664     1.51470
O535        O  0.43274245  0.33680444  0.88240682    -1.41760
C536        C  0.47691561  0.35989101  0.81131413     1.09790
C537        C  0.36411278  0.27736042  0.87845960     1.09880
C538        C  0.38270554  0.34684920  0.81485355     1.09820
C539        C  0.42992531  0.27076298  0.89147227     1.09790
O540        O  0.45114522  0.10902590  0.81448795    -0.79820
O541        O  0.43374741  0.04489716  0.86748747    -0.79850
O542        O  0.98748736  0.10675097  0.87579376    -0.79860
O543        O  0.35589087  0.03200124  0.84144281    -0.79800
O544        O  0.47555045  0.07512323  0.91611495    -0.79920
O545        O  0.39673252  0.05840992  0.81104881    -0.79840
O546        O  0.38678047  0.01728725  0.88560682    -0.79820
O547        O  0.47647046  0.14998563  0.84532869    -0.79860
C548        C  0.47272232  0.13666087  0.81710439     1.09870
C549        C  0.41086668  0.01872256  0.87350357     1.09750
C550        C  0.99489274  0.09146786  0.89499445     1.09890
C551        C  0.37081697  0.03477867  0.81494821     1.09770
O552        O  0.36653718  0.09000951  0.83756157    -0.79830
O553        O  0.45702247  0.11411234  0.93618830    -0.79900
O554        O  0.43445981  0.14460239  0.89679376    -0.79840
O555        O  0.38240808  0.05943873  0.93559254    -0.79820
O556        O  0.41908404  0.05024848  0.93468558    -0.79870
O557        O  0.42249729  0.14234291  0.84450866    -0.79840
O558        O  0.35675237  0.07657401  0.88969420    -0.79790
O559        O  0.49154079  0.15570601  0.91028338    -0.79860
Co560      Co  0.40988472  0.09914338  0.82922883     1.51530
Co561      Co  0.44402249  0.07923335  0.89927407     1.51690
Co562      Co  0.45767848  0.12408545  0.88618822     1.51570
Co563      Co  0.37354112  0.04926683  0.88755724     1.51470
O564        O  0.41571404  0.08640909  0.87375492    -1.41760
C565        C  0.35085998  0.08598564  0.86401097     1.09790
C566        C  0.48162781  0.14137962  0.93692475     1.09880
C567        C  0.42524861  0.15398968  0.87372648     1.09820
C568        C  0.39629395  0.04845475  0.94954675     1.09790
O569        O  0.03771521  0.41577475  0.62438018    -0.79820
O570        O  0.16566669  0.48476490  0.58403731    -0.79850
O571        O  0.08888993  0.47702965  0.61458104    -0.79860
O572        O  0.06951051  0.40663562  0.56064384    -0.79800
O573        O  0.13714624  0.50435240  0.62986003    -0.79920
O574        O  0.04512940  0.36989660  0.59516353    -0.79840
O575        O  0.12553249  0.45663340  0.55179784    -0.79820
O576        O  0.04861697  0.45020519  0.66485153    -0.79860
C577        C  0.02915435  0.43069697  0.64425768     1.09870
C578        C  0.15203979  0.47979254  0.55647893     1.09750
C579        C  0.11245595  0.50299183  0.62064669     1.09890
C580        C  0.04776126  0.37981295  0.56621313     1.09770
O581        O  0.08925749  0.37819762  0.64388172    -0.79830
O582        O  0.14204082  0.46285205  0.67725972    -0.79900
O583        O  0.07141834  0.41542139  0.68423725    -0.79840
O584        O  0.15388467  0.42544187  0.57970492    -0.79820
O585        O  0.16537599  0.44325475  0.63139517    -0.79870
O586        O  0.03418365  0.37188942  0.66242625    -0.79840
O587        O  0.09715002  0.37491412  0.59049753    -0.79790
O588        O  0.10989687  0.47824873  0.68084592    -0.79860
Co589      Co  0.06680999  0.39926590  0.63456157     1.51530
Co590      Co  0.14973564  0.47136854  0.63015230     1.51690
Co591      Co  0.08101581  0.44589216  0.64659246     1.51570
Co592      Co  0.11092113  0.41714833  0.57321659     1.51470
O593        O  0.10714110  0.43502695  0.61784886    -1.41760
C594        C  0.09369404  0.36437590  0.61954951     1.09790
C595        C  0.13281866  0.47833015  0.69253746     1.09880
C596        C  0.04621430  0.38938051  0.68797193     1.09820
C597        C  0.16946984  0.43053532  0.60602990     1.09790
O598        O  0.17517208  0.15907773  0.84233993    -0.79820
O599        O  0.12161158  0.02919794  0.87630281    -0.79850
O600        O  0.20455108  0.08532275  0.81374229    -0.79860
O601        O  0.12400099  0.09427216  0.91932303    -0.79800
O602        O  0.15767958  0.05271735  0.82574118    -0.79920
O603        O  0.12909960  0.10359342  0.86577495    -0.79840
O604        O  0.12430093  0.04050273  0.92950013    -0.79820
O605        O  0.17910915  0.12137327  0.81803849    -0.79860
C606        C  0.17315048  0.14321648  0.81628136     1.09870
C607        C  0.11001061  0.02264415  0.90457856     1.09750
C608        C  0.17938142  0.06104123  0.80597776     1.09890
C609        C  0.11357875  0.09784867  0.89241013     1.09770
O610        O  0.16883311  0.15050823  0.90961043    -0.79830
O611        O  0.21028286  0.05937831  0.86321831    -0.79900
O612        O  0.24000713  0.14782541  0.82991034    -0.79840
O613        O  0.18997189  0.07920687  0.94485400    -0.79820
O614        O  0.17161245  0.03529908  0.91666336    -0.79870
O615        O  0.22148885  0.15866669  0.87476890    -0.79840
O616        O  0.18770243  0.13098385  0.94027359    -0.79790
O617        O  0.23485757  0.10893750  0.87724265    -0.79860
Co618      Co  0.17441436  0.12840257  0.86923729     1.51530
Co619      Co  0.16557617  0.04670514  0.87084625     1.51690
Co620      Co  0.20606786  0.11485139  0.85081835     1.51570
Co621      Co  0.15789821  0.08673478  0.93105003     1.51470
O622        O  0.17293521  0.08942933  0.88375187    -1.41760
C623        C  0.17657400  0.14799654  0.93828501     1.09790
C624        C  0.23516169  0.08436968  0.87101255     1.09880
C625        C  0.24381176  0.16644182  0.85397647     1.09820
C626        C  0.18490694  0.05211246  0.94253654     1.09790
O627        O  0.03304950  0.11868716  0.66455865    -0.79820
O628        O  0.13112735  0.20478501  0.56594515    -0.79850
O629        O  0.04528300  0.16529456  0.57104950    -0.79860
O630        O  0.13219643  0.14024015  0.62643074    -0.79800
O631        O  0.08171978  0.21266449  0.56204124    -0.79920
O632        O  0.08243023  0.11742511  0.63533030    -0.79840
O633        O  0.10811647  0.15599788  0.57711210    -0.79820
O634        O  0.02531370  0.12486164  0.61401206    -0.79860
C635        C  0.01658750  0.10854701  0.63881973     1.09870
C636        C  0.12406925  0.17733031  0.55723100     1.09750
C637        C  0.05870492  0.18709118  0.55200858     1.09890
C638        C  0.10664706  0.11553715  0.62988176     1.09770
O639        O  0.08381130  0.13417579  0.69976085    -0.79830
O640        O  0.09615776  0.24057221  0.62995871    -0.79900
O641        O  0.02925926  0.16987485  0.66555858    -0.79840
O642        O  0.15719389  0.20207373  0.61862841    -0.79820
O643        O  0.14206918  0.23288610  0.63484920    -0.79870
O644        O  0.06974401  0.17869088  0.69333683    -0.79840
O645        O  0.12519109  0.17237500  0.67696470    -0.79790
O646        O  0.04823254  0.21346914  0.61483337    -0.79860
Co647      Co  0.07794684  0.15175021  0.66253851     1.51530
Co648      Co  0.11125283  0.22034566  0.60014815     1.51690
Co649      Co  0.04005688  0.16916419  0.61724076     1.51570
Co650      Co  0.11425696  0.16470369  0.62580637     1.51470
O651        O  0.08420798  0.17984973  0.62437982    -1.41760
C652        C  0.11243090  0.15300097  0.70075562     1.09790
C653        C  0.07186178  0.23938275  0.62308480     1.09880
C654        C  0.04308677  0.17498724  0.69317965     1.09820
C655        C  0.16376441  0.22918176  0.62733305     1.09790
O656        O  0.39796604  0.42064237  0.66383581    -0.79820
O657        O  0.34410420  0.44281789  0.55515199    -0.79850
O658        O  0.33560736  0.35340487  0.58760102    -0.79860
O659        O  0.38022306  0.48209818  0.61653367    -0.79800
O660        O  0.34785543  0.39306102  0.55733434    -0.79920
O661        O  0.39890248  0.47244699  0.65814452    -0.79840
O662        O  0.33189146  0.46999005  0.58859162    -0.79820
O663        O  0.38584104  0.39443876  0.61816735    -0.79860
C664        C  0.40457963  0.40720056  0.64151364     1.09870
C665        C  0.34365709  0.46728513  0.56148486     1.09750
C666        C  0.34492810  0.36721249  0.56032875     1.09890
C667        C  0.40264243  0.48939368  0.63438688     1.09770
O668        O  0.33548049  0.44359745  0.68469428    -0.79830
O669        O  0.28807862  0.35807490  0.58752617    -0.79900
O670        O  0.34427973  0.35204154  0.65936081    -0.79840
O671        O  0.29283715  0.42519846  0.63800791    -0.79820
O672        O  0.28555281  0.41083145  0.58569022    -0.79870
O673        O  0.33718549  0.38679733  0.68654813    -0.79840
O674        O  0.33895859  0.48353531  0.66029895    -0.79790
O675        O  0.29799456  0.35958044  0.63998744    -0.79860
Co676      Co  0.36471124  0.42972869  0.66776503     1.51530
Co677      Co  0.31822949  0.40215745  0.57457086     1.51690
Co678      Co  0.34235890  0.37957587  0.62995915     1.51570
Co679      Co  0.33793626  0.45230123  0.62984245     1.51470
O680        O  0.34507541  0.41810481  0.61671859    -1.41760
C681        C  0.33988309  0.47112474  0.68683650     1.09790
C682        C  0.28011995  0.34626504  0.61589016     1.09880
C683        C  0.34299617  0.36464649  0.68700226     1.09820
C684        C  0.27612189  0.41687217  0.61232963     1.09790
C685        C  0.48736734  0.07800667  0.63661015    -0.05030
C686        C  0.48612563  0.05112705  0.64674791    -0.02140
C687        C  0.46001071  0.02187447  0.64004128     0.02850
C688        C  0.43244902  0.01907137  0.62965095    -0.05020
C689        C  0.43337471  0.04608028  0.61952549    -0.02130
C690        C  0.46121715  0.07498303  0.62095809     0.02840
C691        C  0.01190641  0.05301190  0.66318254     0.37490
C692        C  0.40574223  0.04485343  0.60900983     0.37480
C693        C  0.46254410  0.10159008  0.60678002     0.35910
C694        C  0.46283835  0.99501856  0.64068159     0.35910
N695        N  0.46364521  0.12265982  0.59504101    -0.38910
N696        N  0.46723746  0.47481187  0.63960613    -0.38910
N697        N  0.38384575  0.04436374  0.60096248    -0.38360
N698        N  0.03200851  0.05363130  0.67652447    -0.38360
C699        C  0.19460440  0.25751023  0.62306015    -0.05030
C700        C  0.19721465  0.28110064  0.60307544    -0.02140
C701        C  0.22467832  0.30990804  0.60139104     0.02850
C702        C  0.25060469  0.31595979  0.61973030    -0.05020
C703        C  0.24809132  0.29214099  0.63985801    -0.02130
C704        C  0.22026268  0.26308099  0.64124465     0.02840
C705        C  0.17144338  0.27585142  0.58366961     0.37490
C706        C  0.27370100  0.29636905  0.65902746     0.37480
C707        C  0.21773986  0.23912499  0.66206850     0.35910
C708        C  0.22555699  0.33356425  0.58125052     0.35910
N709        N  0.21577124  0.22001753  0.67863657    -0.38910
N710        N  0.22573983  0.35196350  0.56493422    -0.38910
N711        N  0.29264648  0.29735364  0.67523995    -0.38360
N712        N  0.15113661  0.27213904  0.56792972    -0.38360
C713        C  0.16006884  0.14664887  0.78520342    -0.05030
C714        C  0.16867259  0.17609689  0.77339486    -0.02140
C715        C  0.15362596  0.17859977  0.74552814     0.02850
C716        C  0.13025760  0.15165277  0.72893484    -0.05020
C717        C  0.12272821  0.12234645  0.74023644    -0.02130
C718        C  0.13686059  0.11985770  0.76846123     0.02840
C719        C  0.19281939  0.20382142  0.79007053     0.37490
C720        C  0.10093563  0.09401371  0.72258170     0.37480
C721        C  0.12552493  0.08935533  0.78143911     0.35910
C722        C  0.16128017  0.20884814  0.73497690     0.35910
N723        N  0.11574358  0.06484902  0.79142650    -0.38910
N724        N  0.16733776  0.23301256  0.72662828    -0.38910
N725        N  0.08424075  0.07048968  0.70956230    -0.38360
N726        N  0.21209447  0.22591763  0.80343982    -0.38360
C727        C  0.16518771  0.15724048  0.96897486    -0.05030
C728        C  0.14938003  0.13529342  0.49351720    -0.02140
C729        C  0.13409430  0.14114228  0.51976816     0.02850
C730        C  0.13689939  0.17043338  0.52537090    -0.05020
C731        C  0.15331873  0.19282228  0.50082713    -0.02130
C732        C  0.16648938  0.18589900  0.97256533     0.02840
C733        C  0.14672788  0.10519366  0.49139021     0.37490
C734        C  0.15575615  0.22266330  0.50320913     0.37480
C735        C  0.18186167  0.20860401  0.94732948     0.35910
C736        C  0.11297626  0.11493376  0.53847129     0.35910
N737        N  0.19408811  0.22672625  0.92716397    -0.38910
N738        N  0.09558461  0.09217450  0.55058726    -0.38910
N739        N  0.15796183  0.24664431  0.50412853    -0.38360
N740        N  0.14350807  0.08078460  0.99119773    -0.38360
C741        C  0.18901058  0.03823575  0.97267438    -0.05030
C742        C  0.19095066  0.05174603  0.50478235    -0.02140
C743        C  0.18001994  0.03289668  0.53263187     0.02850
C744        C  0.16782741  0.50070350  0.52859941    -0.05020
C745        C  0.17123602  0.48863853  0.99755141    -0.02130
C746        C  0.18398131  0.50813207  0.97043886     0.02840
C747        C  0.20442490  0.08492043  0.50956821     0.37490
C748        C  0.16170118  0.45628555  0.99318421     0.37480
C749        C  0.19410891  0.49829603  0.94115175     0.35910
C750        C  0.17966023  0.04662201  0.56478671     0.35910
N751        N  0.20264064  0.49071230  0.91792025    -0.38910
N752        N  0.17980469  0.05843878  0.59002490    -0.38910
N753        N  0.15445499  0.43057378  0.98931069    -0.38360
N754        N  0.21532197  0.11138158  0.51360855    -0.38360
C755        C  0.17465887  0.03997194  0.77681501    -0.05030
C756        C  0.15749666  0.00748780  0.78102033    -0.02140
C757        C  0.14527093  0.48688442  0.75329496     0.02850
C758        C  0.15072632  0.49859773  0.72133075    -0.05020
C759        C  0.17393584  0.02989684  0.71710090    -0.02130
C760        C  0.18452014  0.05101491  0.74473003     0.02840
C761        C  0.15274832  0.49514969  0.81386510     0.37490
C762        C  0.18644862  0.04055985  0.68449555     0.37480
C763        C  0.20382651  0.08394384  0.73991534     0.35910
C764        C  0.12791925  0.45370933  0.75753294     0.35910
N765        N  0.21911582  0.11026088  0.73610651    -0.38910
N766        N  0.11433718  0.42724521  0.76092067    -0.38910
N767        N  0.19717323  0.04947507  0.65878570    -0.38360
N768        N  0.14918560  0.48519827  0.83998155    -0.38360
C769        C  0.10950097  0.03114246  0.62247546    -0.05030
C770        C  0.12634503  0.05470055  0.64657754    -0.02140
C771        C  0.12882740  0.08346878  0.64456189     0.02850
C772        C  0.10569373  0.08544181  0.62815602    -0.05020
C773        C  0.08232743  0.05840525  0.61143772    -0.02130
C774        C  0.08616631  0.03267048  0.60548321     0.02840
C775        C  0.12703271  0.04578355  0.67987102     0.37490
C776        C  0.05503617  0.05708716  0.59944932     0.37480
C777        C  0.06553540  0.00776930  0.58280090     0.35910
C778        C  0.15261661  0.10945455  0.66391120     0.35910
N779        N  0.04900672  0.48797559  0.56463567    -0.38910
N780        N  0.17176940  0.13005787  0.67925714    -0.38910
N781        N  0.03342751  0.05592353  0.58915502    -0.38360
N782        N  0.12462978  0.03963941  0.70749569    -0.38360
C783        C  0.09079587  0.33340530  0.62322372    -0.05030
C784        C  0.09965340  0.32075683  0.59650056    -0.02140
C785        C  0.08975675  0.28908013  0.59477751     0.02850
C786        C  0.07367151  0.26973209  0.62147814    -0.05020
C787        C  0.06774289  0.28301737  0.64996123    -0.02130
C788        C  0.07620858  0.31463320  0.65094569     0.02840
C789        C  0.12092067  0.34066417  0.57144959     0.37490
C790        C  0.05361797  0.26425743  0.67863092     0.37480
C791        C  0.07201188  0.32807960  0.68151972     0.35910
C792        C  0.09616966  0.27713620  0.56444939     0.35910
N793        N  0.06941652  0.33888151  0.70631353    -0.38910
N794        N  0.10161045  0.27002581  0.53875178    -0.38910
N795        N  0.04237518  0.24924498  0.70147445    -0.38360
N796        N  0.13811428  0.35635444  0.55165292    -0.38360
C797        C  0.19493773  0.42413738  0.60672594    -0.05030
C798        C  0.21663787  0.43431785  0.58092883    -0.02140
C799        C  0.24165880  0.42988009  0.58197214     0.02850
C800        C  0.24741979  0.41811769  0.61066738    -0.05020
C801        C  0.22575722  0.40797233  0.63666778    -0.02130
C802        C  0.19930626  0.41034618  0.63439063     0.02840
C803        C  0.21519590  0.45218515  0.55455123     0.37490
C804        C  0.22993843  0.39381546  0.66501774     0.37480
C805        C  0.17639033  0.39825845  0.66039822     0.35910
C806        C  0.26129727  0.43774906  0.55292167     0.35910
N807        N  0.15803092  0.38854904  0.68107377    -0.38910
N808        N  0.27617404  0.44338211  0.52922456    -0.38910
N809        N  0.23329815  0.38243561  0.68757379    -0.38360
N810        N  0.21532402  0.46728896  0.53372054    -0.38360
C811        C  0.49684596  0.42410529  0.64380432    -0.05030
C812        C  0.48326348  0.42836000  0.67307133    -0.02140
C813        C  0.45200086  0.41917170  0.67350641     0.02850
C814        C  0.43406127  0.40728922  0.64413752    -0.05020
C815        C  0.44621955  0.39855499  0.61711768    -0.02130
C816        C  0.47795544  0.40983497  0.61548969     0.02840
C817        C  0.50119996  0.44405108  0.70262301     0.37490
C818        C  0.42584820  0.37387336  0.59419591     0.37480
C819        C  0.49135719  0.40993276  0.58346410     0.35910
C820        C  0.43843015  0.42157532  0.70473128     0.35910
N821        N  0.50208696  0.41099662  0.55762609    -0.38910
N822        N  0.42775815  0.42343035  0.72968461    -0.38910
N823        N  0.40971142  0.35314559  0.57675381    -0.38360
N824        N  0.01430649  0.45724260  0.72659564    -0.38360
C825        C  0.50003033  0.15450739  0.96751241    -0.05030
C826        C  0.01393228  0.18615089  0.97698645    -0.02140
C827        C  0.03306536  0.19770633  0.50533504     0.02850
C828        C  0.04483716  0.18028683  0.51844910    -0.05020
C829        C  0.03328415  0.14967169  0.50552053    -0.02130
C830        C  0.00761886  0.13588122  0.98481085     0.02840
C831        C  0.00610342  0.20588435  0.96002220     0.37490
C832        C  0.04487909  0.13067034  0.51672403     0.37480
C833        C  0.48656100  0.10281483  0.98586333     0.35910
C834        C  0.03467769  0.22358382  0.52394007     0.35910
N835        N  0.46886469  0.07679322  0.98869106    -0.38910
N836        N  0.03357471  0.24325708  0.53838152    -0.38910
N837        N  0.05338727  0.11491002  0.52554485    -0.38360
N838        N  0.50020385  0.22189926  0.94647779    -0.38360
C839        C  0.02541572  0.17141583  0.72541756    -0.05030
C840        C  0.99270642  0.15383891  0.72541583    -0.02140
C841        C  0.47597818  0.14430827  0.75539491     0.02850
C842        C  0.49107249  0.15237351  0.78648466    -0.05020
C843        C  0.02313708  0.17357165  0.78700287    -0.02130
C844        C  0.04026172  0.18240134  0.75679938     0.02840
C845        C  0.47530172  0.14436410  0.69473417     0.37490
C846        C  0.03876525  0.18555905  0.81857668     0.37480
C847        C  0.07320508  0.20298791  0.75828773     0.35910
C848        C  0.44264625  0.12625218  0.75401450     0.35910
N849        N  0.09950887  0.21949180  0.75959690    -0.38910
N850        N  0.41614879  0.11183243  0.75285427    -0.38910
N851        N  0.05124630  0.19514603  0.84378546    -0.38360
N852        N  0.46072607  0.13670307  0.67076012    -0.38360
C853        C  0.38467781  0.03092383  0.98116572    -0.05030
C854        C  0.36219954  0.03224364  0.00162588    -0.02140
C855        C  0.34912534  0.01256178  0.52900126     0.02850
C856        C  0.35969562  0.49281798  0.53745417    -0.05020
C857        C  0.38528461  0.49542282  0.52028374    -0.02130
C858        C  0.39548548  0.01149998  0.99077178     0.02840
C859        C  0.35192087  0.05331810  0.99456570     0.37490
C860        C  0.40252917  0.48288887  0.53395469     0.37480
C861        C  0.41494441  0.00511508  0.96932885     0.35910
C862        C  0.32515171  0.01300242  0.54847369     0.35910
N863        N  0.42972398  0.99906434  0.95219246    -0.38910
N864        N  0.30618220  0.01366148  0.56407654    -0.38910
N865        N  0.41689843  0.47378398  0.54522211    -0.38360
N866        N  0.34356561  0.07008650  0.98920668    -0.38360
C867        C  0.34594937  0.48716951  0.72004355    -0.05030
C868        C  0.37585750  0.00179753  0.73293528    -0.02140
C869        C  0.38151055  0.01045242  0.76650937     0.02850
C870        C  0.35918931  0.01178349  0.78642864    -0.05020
C871        C  0.32884905  0.99737748  0.77408351    -0.02130
C872        C  0.32206331  0.48402215  0.74122467     0.02840
C873        C  0.40247405  0.01286309  0.71206614     0.37490
C874        C  0.30489761  0.99653945  0.79471602     0.37480
C875        C  0.29098586  0.46851899  0.72868327     0.35910
C876        C  0.41184934  0.02077599  0.77945647     0.35910
N877        N  0.26617511  0.45628159  0.71860226    -0.38910
N878        N  0.43656309  0.02969891  0.78820351    -0.38910
N879        N  0.28566974  0.99570493  0.81122558    -0.38360
N880        N  0.42632759  0.02500135  0.69973471    -0.38360
C881        C  0.02487338  0.09214620  0.89331003    -0.05030
C882        C  0.03294399  0.07845349  0.91840956    -0.02140
C883        C  0.06209883  0.08163223  0.91893894     0.02850
C884        C  0.08359407  0.09700462  0.89334041    -0.05020
C885        C  0.07582332  0.11122381  0.86889313    -0.02130
C886        C  0.04625615  0.10713927  0.86774253     0.02840
C887        C  0.01109949  0.05869527  0.94296667     0.37490
C888        C  0.09874146  0.13317998  0.84682165     0.37480
C889        C  0.03717563  0.11564993  0.83814259     0.35910
C890        C  0.06887567  0.06740624  0.94555344     0.35910
N891        N  0.02991981  0.12112571  0.81361127    -0.38910
N892        N  0.07370227  0.05581395  0.96683232    -0.38910
N893        N  0.11594296  0.15205748  0.82946179    -0.38360
N894        N  0.99490363  0.04212850  0.96281545    -0.38360
C895        C  0.32316512  0.08932605  0.86451990    -0.05030
C896        C  0.31446984  0.09923492  0.89400224    -0.02140
C897        C  0.28577228  0.09740364  0.89623640     0.02850
C898        C  0.26523597  0.08566833  0.86911729    -0.05020
C899        C  0.27453530  0.07713647  0.83920816    -0.02130
C900        C  0.30342293  0.07954937  0.83670550     0.02840
C901        C  0.33549564  0.11243416  0.92184944     0.37490
C902        C  0.25484623  0.06614732  0.81028749     0.37480
C903        C  0.31250720  0.07167735  0.80521739     0.35910
C904        C  0.27692566  0.10666537  0.92695542     0.35910
N905        N  0.31979125  0.06579128  0.77993154    -0.38910
N906        N  0.26979200  0.11395924  0.95147114    -0.38910
N907        N  0.24029205  0.05712408  0.78631633    -0.38360
N908        N  0.35228119  0.12317740  0.94404539    -0.38360
C909        C  0.02770421  0.36053697  0.53784327    -0.05030
C910        C  0.49566756  0.34657531  0.53922294    -0.02140
C911        C  0.47850983  0.33781294  0.50940370     0.02850
C912        C  0.49319609  0.34114254  0.97805867    -0.05020
C913        C  0.02388412  0.34828174  0.97790211    -0.02130
C914        C  0.04127092  0.35886549  0.00750432     0.02840
C915        C  0.48049080  0.34156995  0.57112522     0.37490
C916        C  0.03744279  0.34379562  0.94793606     0.37480
C917        C  0.07298437  0.36692801  0.00708579     0.35910
C918        C  0.44563001  0.32476569  0.51127020     0.35910
N919        N  0.09813644  0.37286611  0.00684430    -0.38910
N920        N  0.41940419  0.31433510  0.51271093    -0.38910
N921        N  0.04820139  0.33917711  0.92454618    -0.38360
N922        N  0.46836336  0.33725200  0.59661123    -0.38360
C923        C  0.49654070  0.36648168  0.78116170    -0.05030
C924        C  0.49218118  0.34265787  0.75798034    -0.02140
C925        C  0.00878020  0.34987756  0.72794303     0.02850
C926        C  0.03107246  0.38096956  0.72118383    -0.05020
C927        C  0.03695771  0.40445380  0.74567946    -0.02130
C928        C  0.02029865  0.39717266  0.77550957     0.02840
C929        C  0.47081406  0.31041544  0.76453579     0.37490
C930        C  0.05854011  0.43690844  0.74026051     0.37480
C931        C  0.02863480  0.42173528  0.80071733     0.35910
C932        C  0.00218521  0.32490017  0.70397184     0.35910
N933        N  0.03565931  0.44160554  0.82039297    -0.38910
N934        N  0.99661661  0.30484334  0.68499302    -0.38910
N935        N  0.07476053  0.46327427  0.73770086    -0.38360
N936        N  0.45422797  0.28443585  0.76904936    -0.38360
C937        C  0.41385067  0.49037505  0.86961802    -0.05030
C938        C  0.39118858  0.46138361  0.88223111    -0.02140
C939        C  0.39543170  0.43572204  0.88096604     0.02850
C940        C  0.42172924  0.43781402  0.86570256    -0.05020
C941        C  0.44419708  0.46658871  0.85275736    -0.02130
C942        C  0.44086740  0.49262035  0.85571694     0.02840
C943        C  0.36354849  0.45761044  0.89771496     0.37490
C944        C  0.47187323  0.47038092  0.83705063     0.37480
C945        C  0.46638168  0.02169918  0.84458212     0.35910
C946        C  0.37217502  0.40712095  0.89544483     0.35910
N947        N  0.48714606  0.04422077  0.83502675    -0.38910
N948        N  0.35331653  0.38459135  0.90720100    -0.38910
N949        N  0.49391809  0.47367526  0.82445279    -0.38360
N950        N  0.34148812  0.45438129  0.91020369    -0.38360
C951        C  0.42275206  0.23812612  0.88888826    -0.05030
C952        C  0.42610001  0.22368441  0.91644174    -0.02140
C953        C  0.42415181  0.19480895  0.91217535     0.02850
C954        C  0.42041870  0.18072577  0.87992082    -0.05020
C955        C  0.41367248  0.19371244  0.85316483    -0.02130
C956        C  0.41458762  0.22191904  0.85783295     0.02840
C957        C  0.43310596  0.23903348  0.94908940     0.37490
C958        C  0.40609916  0.17877159  0.82024915     0.37480
C959        C  0.40714970  0.23417769  0.83009380     0.35910
C960        C  0.42590234  0.17991743  0.94137220     0.35910
N961        N  0.40127789  0.24339743  0.80742114    -0.38910
N962        N  0.42715769  0.16812082  0.96479317    -0.38910
N963        N  0.40018220  0.16716331  0.79392716    -0.38360
N964        N  0.43870390  0.25120874  0.97513066    -0.38360
C965        C  0.08119258  0.49195822  0.90780132    -0.05030
C966        C  0.08258759  0.46474588  0.90770085    -0.02140
C967        C  0.05609687  0.43534697  0.90116595     0.02850
C968        C  0.02662256  0.43190170  0.90042704    -0.05020
C969        C  0.02541080  0.45936566  0.90459416    -0.02130
C970        C  0.05241224  0.48862117  0.90284607     0.02840
C971        C  0.11172544  0.46670126  0.91031932     0.37490
C972        C  0.99697610  0.45877202  0.90984126     0.37480
C973        C  0.05032433  0.01280788  0.88754898     0.35910
C974        C  0.06032703  0.40974441  0.89203906     0.35790
N975        N  0.04733600  0.03008346  0.87256945    -0.38910
N976        N  0.06450127  0.39013334  0.88330602    -0.38910
N977        N  0.47508831  0.45968764  0.91513998    -0.38360
N978        N  0.13409172  0.46630280  0.91175315    -0.38360
C979        C  0.33396004  0.24819578  0.87209932    -0.05030
C980        C  0.32511668  0.23468637  0.83961097    -0.02140
C981        C  0.29664537  0.20716988  0.83410034     0.02850
C982        C  0.27439630  0.19531381  0.85975732    -0.05020
C983        C  0.28220346  0.21090146  0.89134402    -0.02130
C984        C  0.31234397  0.23517098  0.89813619     0.02840
C985        C  0.34429027  0.24932321  0.81105922     0.37490
C986        C  0.25955221  0.20334536  0.91729134     0.37480
C987        C  0.32027851  0.24685442  0.93227698     0.35910
C988        C  0.29058330  0.19176150  0.80147939     0.35910
N989        N  0.32636784  0.25564007  0.95961931    -0.38910
N990        N  0.28620464  0.17940665  0.77559621    -0.38910
N991        N  0.24238136  0.19890305  0.93858832    -0.38360
N992        N  0.35860870  0.26092255  0.78770372    -0.38360
C993        C  0.37028455  0.35111279  0.96449752    -0.05030
C994        C  0.33976825  0.33196793  0.97511473    -0.02140
C995        C  0.33188270  0.33420449  0.00857383     0.02850
C996        C  0.35432823  0.35619636  0.53096889    -0.05020
C997        C  0.38410683  0.37694631  0.51925288    -0.02130
C998        C  0.39183441  0.37479710  0.98636463     0.02840
C999        C  0.31630109  0.31153165  0.95141042     0.37490
C1000       C  0.40655577  0.40259753  0.54028023     0.37480
C1001       C  0.42238092  0.39772808  0.97519864     0.35910
C1002       C  0.30031385  0.31559376  0.01934342     0.35910
N1003       N  0.44699658  0.41578502  0.46715639    -0.38910
N1004       N  0.27509832  0.30086996  0.02790477    -0.38910
N1005       N  0.42490021  0.42323002  0.55629402    -0.38360
N1006       N  0.29740116  0.29569638  0.93236970    -0.38360
C1007       C  0.36967817  0.34761008  0.78196484    -0.05030
C1008       C  0.37946962  0.34002154  0.75188172    -0.02140
C1009       C  0.36945030  0.34379837  0.72090162     0.02850
C1010       C  0.34913202  0.35507010  0.71935412    -0.05020
C1011       C  0.33761097  0.36052603  0.74943820    -0.02130
C1012       C  0.34805237  0.35728180  0.78035105     0.02840
C1013       C  0.39980637  0.32801241  0.75243737     0.37490
C1014       C  0.31484569  0.36961822  0.74891810     0.37480
C1015       C  0.33718967  0.36546629  0.81031721     0.35910
C1016       C  0.38135581  0.33713145  0.69074426     0.35910
N1017       N  0.32808111  0.37204490  0.83379666    -0.38910
N1018       N  0.39092134  0.33167945  0.66685571    -0.38910
N1019       N  0.29678534  0.37695498  0.74860526    -0.38360
N1020       N  0.41590012  0.31824631  0.75247485    -0.38360
O1021       O  0.44428801  0.91003701  0.34134446    -0.79820
O1022       O  0.45595761  0.84462551  0.44757725    -0.79850
O1023       O  0.36860650  0.83162215  0.40736249    -0.79860
O1024       O  0.50074222  0.87884113  0.37827739    -0.79800
O1025       O  0.40917046  0.84908236  0.43648426    -0.79920
O1026       O  0.47223692  0.89872080  0.39198651    -0.79840
O1027       O  0.48188977  0.82878564  0.41892251    -0.79820
O1028       O  0.41097326  0.88623079  0.38018509    -0.79860
C1029       C  0.42563750  0.91020125  0.36212137     1.09870
C1030       C  0.47655063  0.83820996  0.44645565     1.09750
C1031       C  0.38259226  0.84366563  0.43437258     1.09890
C1032       C  0.49828666  0.90123338  0.39070653     1.09770
O1033       O  0.47387239  0.88085694  0.32540194    -0.79830
O1034       O  0.37490510  0.78531493  0.40784190    -0.79900
O1035       O  0.36684040  0.84155078  0.34100286    -0.79840
O1036       O  0.44276745  0.78782598  0.36710382    -0.79820
O1037       O  0.42477843  0.78160545  0.41822736    -0.79870
O1038       O  0.41031865  0.85187615  0.31758150    -0.79840
O1039       O  0.46434512  0.83400083  0.32421377    -0.79790
O1040       O  0.37718517  0.79576299  0.35532551    -0.79860
Co1041     Co  0.44112036  0.87388720  0.35757427     1.51530
Co1042     Co  0.41694679  0.81659564  0.42564022     1.51690
Co1043     Co  0.39624079  0.83971400  0.36720306     1.51570
Co1044     Co  0.46998128  0.83269134  0.37212661     1.51470
O1045       O  0.43274249  0.83680448  0.38240682    -1.41760
C1046       C  0.47691562  0.85989100  0.31131410     1.09790
C1047       C  0.36411279  0.77736046  0.37845975     1.09880
C1048       C  0.38270554  0.84684919  0.31485357     1.09820
C1049       C  0.42992533  0.77076303  0.39147230     1.09790
O1050       O  0.45114522  0.60902593  0.31448796    -0.79820
O1051       O  0.43374740  0.54489718  0.36748748    -0.79850
O1052       O  0.98748733  0.60675093  0.37579373    -0.79860
O1053       O  0.35589087  0.53200128  0.34144281    -0.79800
O1054       O  0.47555044  0.57512324  0.41611495    -0.79920
O1055       O  0.39673251  0.55840997  0.31104881    -0.79840
O1056       O  0.38678047  0.51728727  0.38560682    -0.79820
O1057       O  0.47647047  0.64998565  0.34532871    -0.79860
C1058       C  0.47272232  0.63666090  0.31710440     1.09870
C1059       C  0.41086668  0.51872258  0.37350358     1.09750
C1060       C  0.99489270  0.59146782  0.39499442     1.09890
C1061       C  0.37081696  0.53477871  0.31494821     1.09770
O1062       O  0.36653719  0.59000956  0.33756159    -0.79830
O1063       O  0.45702247  0.61411236  0.43618832    -0.79900
O1064       O  0.43445982  0.64460243  0.39679377    -0.79840
O1065       O  0.38240809  0.55943876  0.43559255    -0.79820
O1066       O  0.41908403  0.55024849  0.43468559    -0.79870
O1067       O  0.42249730  0.64234296  0.34450868    -0.79840
O1068       O  0.35675237  0.57657404  0.38969422    -0.79790
O1069       O  0.49154079  0.65570603  0.41028339    -0.79860
Co1070     Co  0.40988472  0.59914342  0.32922884     1.51530
Co1071     Co  0.44402249  0.57923337  0.39927408     1.51690
Co1072     Co  0.45767849  0.62408548  0.38618823     1.51570
Co1073     Co  0.37354112  0.54926686  0.38755724     1.51470
O1074       O  0.41571404  0.58640912  0.37375493    -1.41760
C1075       C  0.35085999  0.58598568  0.36401099     1.09790
C1076       C  0.48162781  0.64137964  0.43692476     1.09880
C1077       C  0.42524862  0.65398972  0.37372649     1.09820
C1078       C  0.39629394  0.54845476  0.44954676     1.09790
O1079       O  0.03771523  0.91577476  0.12438016    -0.79820
O1080       O  0.16566673  0.98476490  0.08403731    -0.79850
O1081       O  0.08888996  0.97702966  0.11458101    -0.79860
O1082       O  0.06951054  0.90663563  0.06064382    -0.79800
O1083       O  0.13714628  0.00435240  0.12986001    -0.79920
O1084       O  0.04512942  0.86989661  0.09516350    -0.79840
O1085       O  0.12553254  0.95663341  0.05179784    -0.79820
O1086       O  0.04861699  0.95020520  0.16485150    -0.79860
C1087       C  0.02915437  0.93069698  0.14425765     1.09870
C1088       C  0.15203984  0.97979255  0.05647893     1.09750
C1089       C  0.11245598  0.00299184  0.12064666     1.09890
C1090       C  0.04776129  0.87981297  0.06621310     1.09770
O1091       O  0.08925749  0.87819761  0.14388170    -0.79830
O1092       O  0.14204083  0.96285205  0.17725972    -0.79900
O1093       O  0.07141835  0.91542139  0.18423722    -0.79840
O1094       O  0.15388470  0.92544186  0.07970492    -0.79820
O1095       O  0.16537601  0.94325474  0.13139518    -0.79870
O1096       O  0.03418366  0.87188943  0.16242623    -0.79840
O1097       O  0.09715004  0.87491412  0.09049751    -0.79790
O1098       O  0.10989689  0.97824874  0.18084590    -0.79860
Co1099     Co  0.06681001  0.89926590  0.13456155     1.51530
Co1100     Co  0.14973566  0.97136854  0.13015230     1.51690
Co1101     Co  0.08101583  0.94589217  0.14659244     1.51570
Co1102     Co  0.11092116  0.91714833  0.07321658     1.51470
O1103       O  0.10714113  0.93502695  0.11784885    -1.41760
C1104       C  0.09369405  0.86437589  0.11954949     1.09790
C1105       C  0.13281868  0.97833016  0.19253745     1.09880
C1106       C  0.04621431  0.88938052  0.18797190     1.09820
C1107       C  0.16946986  0.93053531  0.10602991     1.09790
O1108       O  0.17517203  0.65907770  0.34233994    -0.79820
O1109       O  0.12161157  0.52919789  0.37630277    -0.79850
O1110       O  0.20455112  0.58532277  0.31374233    -0.79860
O1111       O  0.12400092  0.59427207  0.41932298    -0.79800
O1112       O  0.15767960  0.55271735  0.32574117    -0.79920
O1113       O  0.12909956  0.60359334  0.36577490    -0.79840
O1114       O  0.12430090  0.54050266  0.42950010    -0.79820
O1115       O  0.17910921  0.62137330  0.31803850    -0.79860
C1116       C  0.17315050  0.64321647  0.31628137     1.09870
C1117       C  0.11001060  0.52264408  0.40457853     1.09750
C1118       C  0.17938146  0.56104126  0.30597777     1.09890
C1119       C  0.11357869  0.59784857  0.39241007     1.09770
O1120       O  0.16883301  0.65050814  0.40961041    -0.79830
O1121       O  0.21028286  0.55937830  0.36321832    -0.79900
O1122       O  0.24000719  0.64782541  0.32991052    -0.79840
O1123       O  0.18997185  0.57920683  0.44485399    -0.79820
O1124       O  0.17161244  0.53529905  0.41666334    -0.79870
O1125       O  0.22148879  0.65866668  0.37476899    -0.79840
O1126       O  0.18770235  0.63098378  0.44027357    -0.79790
O1127       O  0.23485753  0.60893746  0.37724278    -0.79860
Co1128     Co  0.17441431  0.62840252  0.36923729     1.51530
Co1129     Co  0.16557616  0.54670511  0.37084624     1.51690
Co1130     Co  0.20606787  0.61485138  0.35081842     1.51570
Co1131     Co  0.15789816  0.58673471  0.43105000     1.51470
O1132       O  0.17293516  0.58942928  0.38375186    -1.41760
C1133       C  0.17657391  0.64799647  0.43828498     1.09790
C1134       C  0.23516168  0.58436967  0.37101262     1.09880
C1135       C  0.24381176  0.66644181  0.35397665     1.09820
C1136       C  0.18490692  0.55211242  0.44253653     1.09790
O1137       O  0.03304950  0.61868715  0.16455866    -0.79820
O1138       O  0.13112733  0.70478500  0.06594515    -0.79850
O1139       O  0.04528298  0.66529453  0.07104950    -0.79860
O1140       O  0.13219643  0.64024016  0.12643074    -0.79800
O1141       O  0.08171975  0.71266447  0.06204124    -0.79920
O1142       O  0.08243023  0.61742511  0.13533032    -0.79840
O1143       O  0.10811646  0.65599787  0.07711210    -0.79820
O1144       O  0.02531370  0.62486162  0.11401207    -0.79860
C1145       C  0.01658750  0.60854700  0.13881974     1.09870
C1146       C  0.12406923  0.67733030  0.05723100     1.09750
C1147       C  0.05870489  0.68709115  0.05200858     1.09890
C1148       C  0.10664706  0.61553715  0.12988176     1.09770
O1149       O  0.08381131  0.63417579  0.19976087    -0.79830
O1150       O  0.09615773  0.74057219  0.12995871    -0.79900
O1151       O  0.02925925  0.66987483  0.16555857    -0.79840
O1152       O  0.15719388  0.70207374  0.11862840    -0.79820
O1153       O  0.14206916  0.73288610  0.13484919    -0.79870
O1154       O  0.06974400  0.67869088  0.19333683    -0.79840
O1155       O  0.12519110  0.67237500  0.17696470    -0.79790
O1156       O  0.04823251  0.71346912  0.11483335    -0.79860
Co1157     Co  0.07794684  0.65175021  0.16253852     1.51530
Co1158     Co  0.11125280  0.72034565  0.10014814     1.51690
Co1159     Co  0.04005687  0.66916417  0.11724076     1.51570
Co1160     Co  0.11425695  0.66470369  0.12580637     1.51470
O1161       O  0.08420797  0.67984973  0.12437982    -1.41760
C1162       C  0.11243091  0.65300098  0.20075563     1.09790
C1163       C  0.07186175  0.73938273  0.12308479     1.09880
C1164       C  0.04308675  0.67498723  0.19317965     1.09820
C1165       C  0.16376439  0.72918176  0.12733304     1.09790
O1166       O  0.39796606  0.92064234  0.16383580    -0.79820
O1167       O  0.34410423  0.94281788  0.05515200    -0.79850
O1168       O  0.33560735  0.85340485  0.08760102    -0.79860
O1169       O  0.38022309  0.98209815  0.11653367    -0.79800
O1170       O  0.34785543  0.89306099  0.05733435    -0.79920
O1171       O  0.39890250  0.97244698  0.15814455    -0.79840
O1172       O  0.33189149  0.96999004  0.08859163    -0.79820
O1173       O  0.38584103  0.89443872  0.11816735    -0.79860
C1174       C  0.40457963  0.90720052  0.14151363     1.09870
C1175       C  0.34365711  0.96728512  0.06148486     1.09750
C1176       C  0.34492809  0.86721247  0.06032875     1.09890
C1177       C  0.40264245  0.98939366  0.13438689     1.09770
O1178       O  0.33548051  0.94359743  0.18469429    -0.79830
O1179       O  0.28807863  0.85807489  0.08752618    -0.79900
O1180       O  0.34427973  0.85204151  0.15936082    -0.79840
O1181       O  0.29283717  0.92519846  0.13800792    -0.79820
O1182       O  0.28555283  0.91083146  0.08569023    -0.79870
O1183       O  0.33718550  0.88679730  0.18654813    -0.79840
O1184       O  0.33895863  0.98353530  0.16029896    -0.79790
O1185       O  0.29799456  0.85958042  0.13998744    -0.79860
Co1186     Co  0.36471126  0.92972867  0.16776504     1.51530
Co1187     Co  0.31822950  0.90215744  0.07457087     1.51690
Co1188     Co  0.34235890  0.87957584  0.12995915     1.51570
Co1189     Co  0.33793629  0.95230122  0.12984245     1.51470
O1190       O  0.34507542  0.91810479  0.11671860    -1.41760
C1191       C  0.33988311  0.97112473  0.18683650     1.09790
C1192       C  0.28011995  0.84626503  0.11589017     1.09880
C1193       C  0.34299617  0.86464646  0.18700226     1.09820
C1194       C  0.27612192  0.91687217  0.11232964     1.09790
C1195       C  0.48736732  0.57800664  0.13661020    -0.05030
C1196       C  0.48612562  0.55112701  0.14674789    -0.02140
C1197       C  0.46001069  0.52187444  0.14004123     0.02850
C1198       C  0.43244900  0.51907136  0.12965096    -0.05020
C1199       C  0.43337468  0.54608028  0.11952556    -0.02130
C1200       C  0.46121712  0.57498303  0.12095816     0.02840
C1201       C  0.01190640  0.55301189  0.16318258     0.37490
C1202       C  0.40574220  0.54485344  0.10900992     0.37480
C1203       C  0.46254408  0.60159009  0.10678013     0.35910
C1204       C  0.46283835  0.49501853  0.14068137     0.35910
N1205       N  0.46364520  0.62265983  0.09504113    -0.38910
N1206       N  0.46723747  0.97481188  0.13960650    -0.38910
N1207       N  0.38384571  0.54436375  0.10096259    -0.38360
N1208       N  0.03200850  0.55363130  0.17652453    -0.38360
C1209       C  0.19460439  0.75751023  0.12306015    -0.05030
C1210       C  0.19721463  0.78110065  0.10307545    -0.02140
C1211       C  0.22467831  0.80990805  0.10139105     0.02850
C1212       C  0.25060468  0.81595978  0.11973030    -0.05020
C1213       C  0.24809131  0.79214098  0.13985801    -0.02130
C1214       C  0.22026267  0.76308098  0.14124464     0.02840
C1215       C  0.17144337  0.77585144  0.08366963     0.37490
C1216       C  0.27370099  0.79636903  0.15902744     0.37480
C1217       C  0.21773984  0.73912497  0.16206848     0.35910
C1218       C  0.22555698  0.83356427  0.08125054     0.35910
N1219       N  0.21577121  0.72001751  0.17863654    -0.38910
N1220       N  0.22573983  0.85196352  0.06493425    -0.38910
N1221       N  0.29264647  0.79735360  0.17523992    -0.38360
N1222       N  0.15113660  0.77213907  0.06792974    -0.38360
C1223       C  0.16006888  0.64664886  0.28520340    -0.05030
C1224       C  0.16867261  0.67609689  0.27339486    -0.02140
C1225       C  0.15362598  0.67859977  0.24552814     0.02850
C1226       C  0.13025763  0.65165277  0.22893483    -0.05020
C1227       C  0.12272825  0.62234645  0.24023643    -0.02130
C1228       C  0.13686064  0.61985770  0.26846120     0.02840
C1229       C  0.19281940  0.70382142  0.29007055     0.37490
C1230       C  0.10093566  0.59401371  0.22258169     0.37480
C1231       C  0.12552500  0.58935533  0.28143906     0.35910
C1232       C  0.16128018  0.70884814  0.23497692     0.35910
N1233       N  0.11574365  0.56484901  0.29142643    -0.38910
N1234       N  0.16733776  0.73301256  0.22662830    -0.38910
N1235       N  0.08424078  0.57048969  0.20956227    -0.38360
N1236       N  0.21209446  0.72591762  0.30343985    -0.38360
C1237       C  0.16518764  0.65724041  0.46897483    -0.05030
C1238       C  0.14938001  0.63529341  0.99351719    -0.02140
C1239       C  0.13409428  0.64114227  0.01976816     0.02850
C1240       C  0.13689937  0.67043337  0.02537089    -0.05020
C1241       C  0.15331871  0.69282228  0.00082713    -0.02130
C1242       C  0.16648927  0.68589891  0.47256525     0.02840
C1243       C  0.14672786  0.60519365  0.99139021     0.37490
C1244       C  0.15575614  0.72266330  0.00320914     0.37480
C1245       C  0.18186162  0.70860392  0.44732941     0.35910
C1246       C  0.11297624  0.61493376  0.03847129     0.35910
N1247       N  0.19408813  0.72672613  0.42716389    -0.38910
N1248       N  0.09558459  0.59217450  0.05058727    -0.38910
N1249       N  0.15796184  0.74664432  0.00412855    -0.38360
N1250       N  0.14350805  0.58078456  0.49119774    -0.38360
C1251       C  0.18901056  0.53823572  0.47267437    -0.05030
C1252       C  0.19095064  0.55174603  0.00478235    -0.02140
C1253       C  0.18001993  0.53289668  0.03263187     0.02850
C1254       C  0.16782745  0.00070352  0.02859942    -0.05020
C1255       C  0.17123603  0.98863852  0.49755140    -0.02130
C1256       C  0.18398133  0.00813207  0.47043886     0.02840
C1257       C  0.20442488  0.58492043  0.00956821     0.37490
C1258       C  0.16170118  0.95628555  0.49318420     0.37480
C1259       C  0.19410893  0.99829602  0.44115175     0.35910
C1260       C  0.17966022  0.54662201  0.06478671     0.35910
N1261       N  0.20264066  0.99071230  0.41792025    -0.38910
N1262       N  0.17980469  0.55843878  0.09002490    -0.38910
N1263       N  0.15445498  0.93057377  0.48931068    -0.38360
N1264       N  0.21532194  0.61138158  0.01360855    -0.38360
C1265       C  0.17465893  0.53997198  0.27681502    -0.05030
C1266       C  0.15749672  0.50748783  0.28102033    -0.02140
C1267       C  0.14527095  0.98688443  0.25329495     0.02850
C1268       C  0.15072634  0.99859774  0.22133074    -0.05020
C1269       C  0.17393586  0.52989687  0.21710090    -0.02130
C1270       C  0.18452017  0.55101494  0.24473003     0.02840
C1271       C  0.15274836  0.99514970  0.31386509     0.37490
C1272       C  0.18644864  0.54055988  0.18449555     0.37480
C1273       C  0.20382654  0.58394388  0.23991535     0.35910
C1274       C  0.12791927  0.95370934  0.25753293     0.35910
N1275       N  0.21911584  0.61026092  0.23610652    -0.38910
N1276       N  0.11433720  0.92724522  0.26092066    -0.38910
N1277       N  0.19717324  0.54947512  0.15878570    -0.38360
N1278       N  0.14918565  0.98519828  0.33998154    -0.38360
C1279       C  0.10950097  0.53114247  0.12247546    -0.05030
C1280       C  0.12634505  0.55470056  0.14657753    -0.02140
C1281       C  0.12882742  0.58346880  0.14456187     0.02850
C1282       C  0.10569373  0.58544182  0.12815602    -0.05020
C1283       C  0.08232743  0.55840526  0.11143773    -0.02130
C1284       C  0.08616631  0.53267048  0.10548322     0.02840
C1285       C  0.12703273  0.54578358  0.17987101     0.37490
C1286       C  0.05503616  0.55708716  0.09944935     0.37480
C1287       C  0.06553539  0.50776930  0.08280092     0.35910
C1288       C  0.15261664  0.60945457  0.16391117     0.35910
N1289       N  0.04900683  0.98797564  0.06463556    -0.38910
N1290       N  0.17176943  0.63005789  0.17925710    -0.38910
N1291       N  0.03342750  0.55592353  0.08915505    -0.38360
N1292       N  0.12462980  0.53963944  0.20749568    -0.38360
C1293       C  0.09079585  0.83340528  0.12322369    -0.05030
C1294       C  0.09965337  0.82075680  0.09650053    -0.02140
C1295       C  0.08975671  0.78908010  0.09477748     0.02850
C1296       C  0.07367147  0.76973207  0.12147812    -0.05020
C1297       C  0.06774287  0.78301735  0.14996121    -0.02130
C1298       C  0.07620857  0.81463319  0.15094566     0.02840
C1299       C  0.12092063  0.84066413  0.07144954     0.37490
C1300       C  0.05361795  0.76425742  0.17863090     0.37480
C1301       C  0.07201188  0.82807960  0.18151970     0.35910
C1302       C  0.09616961  0.77713616  0.06444937     0.35910
N1303       N  0.06941652  0.83888150  0.20631351    -0.38910
N1304       N  0.10161041  0.77002576  0.03875175    -0.38910
N1305       N  0.04237516  0.74924498  0.20147444    -0.38360
N1306       N  0.13811422  0.85635439  0.05165286    -0.38360
C1307       C  0.19493776  0.92413738  0.10672596    -0.05030
C1308       C  0.21663791  0.93431789  0.08092887    -0.02140
C1309       C  0.24165884  0.92988012  0.08197217     0.02850
C1310       C  0.24741982  0.91811770  0.11066739    -0.05020
C1311       C  0.22575723  0.90797231  0.13666778    -0.02130
C1312       C  0.19930627  0.91034615  0.13439062     0.02840
C1313       C  0.21519597  0.95218524  0.05455130     0.37490
C1314       C  0.22993843  0.89381541  0.16501773     0.37480
C1315       C  0.17639032  0.89825839  0.16039820     0.35910
C1316       C  0.26129732  0.93774911  0.05292170     0.35910
N1317       N  0.15803089  0.88854896  0.18107374    -0.38910
N1318       N  0.27617408  0.94338216  0.02922459    -0.38910
N1319       N  0.23329814  0.88243554  0.18757376    -0.38360
N1320       N  0.21532411  0.96728908  0.03372064    -0.38360
C1321       C  0.49684594  0.92410523  0.14380432    -0.05030
C1322       C  0.48326346  0.92835989  0.17307134    -0.02140
C1323       C  0.45200082  0.91917158  0.17350642     0.02850
C1324       C  0.43406126  0.90728915  0.14413751    -0.05020
C1325       C  0.44621954  0.89855495  0.11711766    -0.02130
C1326       C  0.47795543  0.90983493  0.11548967     0.02840
C1327       C  0.50119992  0.94405092  0.20262304     0.37490
C1328       C  0.42584820  0.87387333  0.09419588     0.37480
C1329       C  0.49135720  0.90993274  0.08346408     0.35910
C1330       C  0.43843010  0.92157516  0.20473129     0.35910
N1331       N  0.50208698  0.91099662  0.05762607    -0.38910
N1332       N  0.42775809  0.92343016  0.22968462    -0.38910
N1333       N  0.40971143  0.85314556  0.07675377    -0.38360
N1334       N  0.01430651  0.95724260  0.22659560    -0.38360
C1335       C  0.50003033  0.65450740  0.46751243    -0.05030
C1336       C  0.01393229  0.68615089  0.47698643    -0.02140
C1337       C  0.03306532  0.69770630  0.00533504     0.02850
C1338       C  0.04483713  0.68028680  0.01844909    -0.05020
C1339       C  0.03328412  0.64967167  0.00552052    -0.02130
C1340       C  0.00761892  0.63588124  0.48481080     0.02840
C1341       C  0.00610340  0.70588433  0.46002218     0.37490
C1342       C  0.04487907  0.63067032  0.01672401     0.37480
C1343       C  0.48656101  0.60281484  0.48586333     0.35910
C1344       C  0.03467764  0.72358378  0.02394008     0.35910
N1345       N  0.46886471  0.57679322  0.48869104    -0.38910
N1346       N  0.03357465  0.74325703  0.03838154    -0.38910
N1347       N  0.05338726  0.61491000  0.02554483    -0.38360
N1348       N  0.50020386  0.72189928  0.44647782    -0.38360
C1349       C  0.02541570  0.67141582  0.22541756    -0.05030
C1350       C  0.99270640  0.65383889  0.22541582    -0.02140
C1351       C  0.47597818  0.64430830  0.25539493     0.02850
C1352       C  0.49107249  0.65237354  0.28648467    -0.05020
C1353       C  0.02313705  0.67357165  0.28700286    -0.02130
C1354       C  0.04026170  0.68240134  0.25679937     0.02840
C1355       C  0.47530171  0.64436416  0.19473418     0.37490
C1356       C  0.03876523  0.68555906  0.31857667     0.37480
C1357       C  0.07320506  0.70298793  0.25828772     0.35910
C1358       C  0.44264624  0.62625222  0.25401451     0.35910
N1359       N  0.09950884  0.71949183  0.25959689    -0.38910
N1360       N  0.41614879  0.61183247  0.25285429    -0.38910
N1361       N  0.05124628  0.69514604  0.34378545    -0.38360
N1362       N  0.46072605  0.63670315  0.17076014    -0.38360
C1363       C  0.38467780  0.53092385  0.48116573    -0.05030
C1364       C  0.36219951  0.53224364  0.50162587    -0.02140
C1365       C  0.34912532  0.51256176  0.02900128     0.02850
C1366       C  0.35969564  0.99281796  0.03745417    -0.05020
C1367       C  0.38528463  0.99542280  0.02028373    -0.02130
C1368       C  0.39548546  0.51150000  0.49077179     0.02840
C1369       C  0.35192083  0.55331810  0.49456568     0.37490
C1370       C  0.40252918  0.98288884  0.03395466     0.37480
C1371       C  0.41494439  0.50511509  0.46932886     0.35910
C1372       C  0.32515169  0.51300241  0.04847372     0.35910
N1373       N  0.42972395  0.49906435  0.45219247    -0.38910
N1374       N  0.30618219  0.51366147  0.06407658    -0.38910
N1375       N  0.41689844  0.97378395  0.04522208    -0.38360
N1376       N  0.34356556  0.57008649  0.48920665    -0.38360
C1377       C  0.34594938  0.98716950  0.22004355    -0.05030
C1378       C  0.37585751  0.50179749  0.23293532    -0.02140
C1379       C  0.38151055  0.51045244  0.26650940     0.02850
C1380       C  0.35918932  0.51178353  0.28642865    -0.05020
C1381       C  0.32884905  0.49737753  0.27408350    -0.02130
C1382       C  0.32206333  0.98402212  0.24122469     0.02840
C1383       C  0.40247406  0.51286293  0.21206621     0.37490
C1384       C  0.30489762  0.49653951  0.29471600     0.37480
C1385       C  0.29098587  0.96851893  0.22868330     0.35910
C1386       C  0.41184934  0.52077603  0.27945652     0.35910
N1387       N  0.26617512  0.95628151  0.21860230    -0.38910
N1388       N  0.43656310  0.52969898  0.28820357    -0.38910
N1389       N  0.28566974  0.49570499  0.31122554    -0.38360
N1390       N  0.42632762  0.52500109  0.19973482    -0.38360
C1391       C  0.02487332  0.59214611  0.39330997    -0.05030
C1392       C  0.03294391  0.57845336  0.41840947    -0.02140
C1393       C  0.06209875  0.58163210  0.41893885     0.02850
C1394       C  0.08359400  0.59700450  0.39334033    -0.05020
C1395       C  0.07582325  0.61122370  0.36889306    -0.02130
C1396       C  0.04625609  0.60713919  0.36774247     0.02840
C1397       C  0.01109940  0.55869511  0.44296654     0.37490
C1398       C  0.09874138  0.63317984  0.34682155     0.37480
C1399       C  0.03717558  0.61564988  0.33814255     0.35910
C1400       C  0.06887558  0.56740610  0.44555335     0.35910
N1401       N  0.02991977  0.62112569  0.31361125    -0.38910
N1402       N  0.07370219  0.55581382  0.46683224    -0.38910
N1403       N  0.11594287  0.65205733  0.32946167    -0.38360
N1404       N  0.99490353  0.54212831  0.46281531    -0.38360
C1405       C  0.32316513  0.58932609  0.36451993    -0.05030
C1406       C  0.31446985  0.59923496  0.39400228    -0.02140
C1407       C  0.28577229  0.59740367  0.39623644     0.02850
C1408       C  0.26523597  0.58566835  0.36911734    -0.05020
C1409       C  0.27453531  0.57713650  0.33920820    -0.02130
C1410       C  0.30342294  0.57954941  0.33670554     0.02840
C1411       C  0.33549566  0.61243420  0.42184947     0.37490
C1412       C  0.25484625  0.56614737  0.31028753     0.37480
C1413       C  0.31250722  0.57167741  0.30521742     0.35910
C1414       C  0.27692567  0.60666541  0.42695546     0.35910
N1415       N  0.31979127  0.56579135  0.27993157    -0.38910
N1416       N  0.26979203  0.61395930  0.45147119    -0.38910
N1417       N  0.24029209  0.55712414  0.28631636    -0.38360
N1418       N  0.35228121  0.62317745  0.44404542    -0.38360
C1419       C  0.02770424  0.86053700  0.03784324    -0.05030
C1420       C  0.49566756  0.84657530  0.03922291    -0.02140
C1421       C  0.47850983  0.83781294  0.00940368     0.02850
C1422       C  0.49319616  0.84114257  0.47805863    -0.05020
C1423       C  0.02388415  0.84828175  0.47790209    -0.02130
C1424       C  0.04127094  0.85886548  0.50750431     0.02840
C1425       C  0.48049081  0.84156993  0.07112520     0.37490
C1426       C  0.03744282  0.84379563  0.44793604     0.37480
C1427       C  0.07298439  0.86692800  0.50708578     0.35910
C1428       C  0.44563001  0.82476567  0.01127018     0.35910
N1429       N  0.09813646  0.87286608  0.50684431    -0.38910
N1430       N  0.41940419  0.81433508  0.01271092    -0.38910
N1431       N  0.04820143  0.83917714  0.42454616    -0.38360
N1432       N  0.46836337  0.83725198  0.09661121    -0.38360
C1433       C  0.49654072  0.86648166  0.28116167    -0.05030
C1434       C  0.49218118  0.84265784  0.25798032    -0.02140
C1435       C  0.00878020  0.84987757  0.22794301     0.02850
C1436       C  0.03107247  0.88096956  0.22118380    -0.05020
C1437       C  0.03695773  0.90445381  0.24567944    -0.02130
C1438       C  0.02029867  0.89717266  0.27550955     0.02840
C1439       C  0.47081403  0.81041542  0.26453576     0.37490
C1440       C  0.05854012  0.93690844  0.24026049     0.37480
C1441       C  0.02863482  0.92173528  0.30071731     0.35910
C1442       C  0.00218522  0.82490018  0.20397182     0.35910
N1443       N  0.03565933  0.94160555  0.32039296    -0.38910
N1444       N  0.99661661  0.80484334  0.18499299    -0.38910
N1445       N  0.07476054  0.96327428  0.23770084    -0.38360
N1446       N  0.45422791  0.78443584  0.26904935    -0.38360
C1447       C  0.41385071  0.99037507  0.36961799    -0.05030
C1448       C  0.39118863  0.96138363  0.38223109    -0.02140
C1449       C  0.39543175  0.93572207  0.38096601     0.02850
C1450       C  0.42172929  0.93781405  0.36570252    -0.05020
C1451       C  0.44419712  0.96658874  0.35275731    -0.02130
C1452       C  0.44086744  0.99262037  0.35571689     0.02840
C1453       C  0.36354856  0.95761047  0.39771496     0.37490
C1454       C  0.47187326  0.97038094  0.33705057     0.37480
C1455       C  0.46638168  0.52169920  0.34458213     0.35910
C1456       C  0.37217509  0.90712099  0.39544483     0.35910
N1457       N  0.48714606  0.54422079  0.33502677    -0.38910
N1458       N  0.35331660  0.88459139  0.40720102    -0.38910
N1459       N  0.49391812  0.97367528  0.32445272    -0.38360
N1460       N  0.34148819  0.95438132  0.41020371    -0.38360
C1461       C  0.42275205  0.73812616  0.38888830    -0.05030
C1462       C  0.42610003  0.72368446  0.41644177    -0.02140
C1463       C  0.42415184  0.69480900  0.41217537     0.02850
C1464       C  0.42041872  0.68072582  0.37992084    -0.05020
C1465       C  0.41367247  0.69371248  0.35316486    -0.02130
C1466       C  0.41458758  0.72191907  0.35783300     0.02840
C1467       C  0.43310602  0.73903354  0.44908942     0.37490
C1468       C  0.40609917  0.67877165  0.32024917     0.37480
C1469       C  0.40714958  0.73417769  0.33009388     0.35910
C1470       C  0.42590237  0.67991748  0.44137222     0.35910
N1471       N  0.40127770  0.74339742  0.30742126    -0.38910
N1472       N  0.42715773  0.66812087  0.46479318    -0.38910
N1473       N  0.40018222  0.66716339  0.29392717    -0.38360
N1474       N  0.43870398  0.75120881  0.47513068    -0.38360
C1475       C  0.08119261  0.99195823  0.40780132    -0.05030
C1476       C  0.08258762  0.96474588  0.40770083    -0.02140
C1477       C  0.05609689  0.93534697  0.40116593     0.02850
C1478       C  0.02662258  0.93190171  0.40042702    -0.05020
C1479       C  0.02541083  0.95936567  0.40459416    -0.02130
C1480       C  0.05241227  0.98862117  0.40284607     0.02840
C1481       C  0.11172547  0.96670126  0.41031930     0.37490
C1482       C  0.99697613  0.95877202  0.40984126     0.37480
C1483       C  0.05032434  0.51280781  0.38754887     0.35910
C1484       C  0.06032705  0.90974442  0.39203903     0.35790
N1485       N  0.04733603  0.53008338  0.37256929    -0.38910
N1486       N  0.06450129  0.89013335  0.38330598    -0.38910
N1487       N  0.47508836  0.95968767  0.41513993    -0.38360
N1488       N  0.13409175  0.96630281  0.41175312    -0.38360
C1489       C  0.33396005  0.74819578  0.37209952    -0.05030
C1490       C  0.32511657  0.73468650  0.33961112    -0.02140
C1491       C  0.29664522  0.70717008  0.33410047     0.02850
C1492       C  0.27439630  0.69531377  0.35975758    -0.05020
C1493       C  0.28220362  0.71090113  0.39134443    -0.02130
C1494       C  0.31234410  0.73517079  0.39813649     0.02840
C1495       C  0.34429011  0.74932340  0.31105937     0.37490
C1496       C  0.25955255  0.70334450  0.41729208     0.37480
C1497       C  0.32027876  0.74685417  0.43227729     0.35910
C1498       C  0.29058290  0.69176201  0.30147933     0.35910
N1499       N  0.32636818  0.75563980  0.45961961    -0.38910
N1500       N  0.28620404  0.67940740  0.27559599    -0.38910
N1501       N  0.24238186  0.69890176  0.43858935    -0.38360
N1502       N  0.35860853  0.76092277  0.28770387    -0.38360
C1503       C  0.37028463  0.85111282  0.46449759    -0.05030
C1504       C  0.33976836  0.83196787  0.47511482    -0.02140
C1505       C  0.33188280  0.83420445  0.50857390     0.02850
C1506       C  0.35432822  0.85619633  0.03096888    -0.05020
C1507       C  0.38410682  0.87694628  0.01925287    -0.02130
C1508       C  0.39183447  0.87479715  0.48636468     0.02840
C1509       C  0.31630123  0.81153144  0.45141055     0.37490
C1510       C  0.40655576  0.90259750  0.04028023     0.37480
C1511       C  0.42238096  0.89772818  0.47519869     0.35910
C1512       C  0.30031394  0.81559367  0.51934350     0.35910
N1513       N  0.44699658  0.91578499  0.96715639    -0.38910
N1514       N  0.27509842  0.80086983  0.52790484    -0.38910
N1515       N  0.42490020  0.92322999  0.05629402    -0.38360
N1516       N  0.29740133  0.79569605  0.43236985    -0.38360
C1517       C  0.36967817  0.84761005  0.28196486    -0.05030
C1518       C  0.37946960  0.84002150  0.25188173    -0.02140
C1519       C  0.36945028  0.84379832  0.22090164     0.02850
C1520       C  0.34913201  0.85507007  0.21935413    -0.05020
C1521       C  0.33761098  0.86052602  0.24943821    -0.02130
C1522       C  0.34805239  0.85728180  0.28035106     0.02840
C1523       C  0.39980634  0.82801236  0.25243739     0.37490
C1524       C  0.31484571  0.86961823  0.24891811     0.37480
C1525       C  0.33718970  0.86546632  0.31031722     0.35910
C1526       C  0.38135577  0.83713138  0.19074427     0.35910
N1527       N  0.32808117  0.87204495  0.33379667    -0.38910
N1528       N  0.39092129  0.83167937  0.16685572    -0.38910
N1529       N  0.29678537  0.87695501  0.24860527    -0.38360
N1530       N  0.41590008  0.81824625  0.25247486    -0.38360
O1531       O  0.44428800  0.91003700  0.84134445    -0.79820
O1532       O  0.45595756  0.84462548  0.94757727    -0.79850
O1533       O  0.36860647  0.83162212  0.90736246    -0.79860
O1534       O  0.50074222  0.87884114  0.87827740    -0.79800
O1535       O  0.40917042  0.84908233  0.93648424    -0.79920
O1536       O  0.47223691  0.89872081  0.89198650    -0.79840
O1537       O  0.48188976  0.82878565  0.91892253    -0.79820
O1538       O  0.41097324  0.88623077  0.88018508    -0.79860
C1539       C  0.42563749  0.91020124  0.86212136     1.09870
C1540       C  0.47655060  0.83820995  0.94645567     1.09750
C1541       C  0.38259222  0.84366560  0.93437255     1.09890
C1542       C  0.49828665  0.90123340  0.89070653     1.09770
O1543       O  0.47387239  0.88085694  0.82540193    -0.79830
O1544       O  0.37490508  0.78531491  0.90784185    -0.79900
O1545       O  0.36684039  0.84155078  0.84100285    -0.79840
O1546       O  0.44276745  0.78782598  0.86710383    -0.79820
O1547       O  0.42477841  0.78160544  0.91822736    -0.79870
O1548       O  0.41031864  0.85187615  0.81758149    -0.79840
O1549       O  0.46434513  0.83400083  0.82421378    -0.79790
O1550       O  0.37718516  0.79576299  0.85532547    -0.79860
Co1551     Co  0.44112035  0.87388719  0.85757427     1.51530
Co1552     Co  0.41694676  0.81659561  0.92564021     1.51690
Co1553     Co  0.39624078  0.83971399  0.86720304     1.51570
Co1554     Co  0.46998128  0.83269135  0.87212662     1.51470
O1555       O  0.43274248  0.83680447  0.88240682    -1.41760
C1556       C  0.47691562  0.85989100  0.81131410     1.09790
C1557       C  0.36411278  0.77736044  0.87845970     1.09880
C1558       C  0.38270554  0.84684919  0.81485355     1.09820
C1559       C  0.42992533  0.77076302  0.89147230     1.09790
O1560       O  0.45114519  0.60902592  0.81448798    -0.79820
O1561       O  0.43374736  0.54489715  0.86748749    -0.79850
O1562       O  0.98748731  0.60675095  0.87579373    -0.79860
O1563       O  0.35589083  0.53200126  0.84144282    -0.79800
O1564       O  0.47555040  0.57512323  0.91611497    -0.79920
O1565       O  0.39673248  0.55840996  0.81104881    -0.79840
O1566       O  0.38678043  0.51728725  0.88560683    -0.79820
O1567       O  0.47647043  0.64998564  0.84532873    -0.79860
C1568       C  0.47272229  0.63666089  0.81710442     1.09870
C1569       C  0.41086664  0.51872256  0.87350360     1.09750
C1570       C  0.99489269  0.59146784  0.89499442     1.09890
C1571       C  0.37081693  0.53477870  0.81494821     1.09770
O1572       O  0.36653716  0.59000955  0.83756160    -0.79830
O1573       O  0.45702243  0.61411233  0.93618833    -0.79900
O1574       O  0.43445977  0.64460240  0.89679379    -0.79840
O1575       O  0.38240804  0.55943873  0.93559256    -0.79820
O1576       O  0.41908400  0.55024847  0.93468560    -0.79870
O1577       O  0.42249727  0.64234294  0.84450869    -0.79840
O1578       O  0.35675234  0.57657402  0.88969423    -0.79790
O1579       O  0.49154074  0.65570601  0.91028341    -0.79860
Co1580     Co  0.40988468  0.59914341  0.82922885     1.51530
Co1581     Co  0.44402245  0.57923335  0.89927409     1.51690
Co1582     Co  0.45767844  0.62408546  0.88618825     1.51570
Co1583     Co  0.37354108  0.54926683  0.88755725     1.51470
O1584       O  0.41571400  0.58640910  0.87375494    -1.41760
C1585       C  0.35085995  0.58598566  0.86401100     1.09790
C1586       C  0.48162777  0.64137962  0.93692478     1.09880
C1587       C  0.42524858  0.65398970  0.87372651     1.09820
C1588       C  0.39629390  0.54845474  0.94954677     1.09790
O1589       O  0.03771521  0.91577475  0.62438015    -0.79820
O1590       O  0.16566670  0.98476489  0.58403729    -0.79850
O1591       O  0.08888994  0.97702965  0.61458101    -0.79860
O1592       O  0.06951051  0.90663562  0.56064380    -0.79800
O1593       O  0.13714625  0.00435239  0.62986001    -0.79920
O1594       O  0.04512940  0.86989660  0.59516349    -0.79840
O1595       O  0.12553251  0.95663339  0.55179782    -0.79820
O1596       O  0.04861697  0.95020518  0.66485150    -0.79860
C1597       C  0.02915435  0.93069697  0.64425765     1.09870
C1598       C  0.15203981  0.97979254  0.55647892     1.09750
C1599       C  0.11245595  0.00299183  0.62064667     1.09890
C1600       C  0.04776126  0.87981295  0.56621310     1.09770
O1601       O  0.08925748  0.87819761  0.64388169    -0.79830
O1602       O  0.14204081  0.96285203  0.67725970    -0.79900
O1603       O  0.07141833  0.91542137  0.68423721    -0.79840
O1604       O  0.15388468  0.92544186  0.57970490    -0.79820
O1605       O  0.16537599  0.94325473  0.63139516    -0.79870
O1606       O  0.03418364  0.87188941  0.66242622    -0.79840
O1607       O  0.09715002  0.87491412  0.59049750    -0.79790
O1608       O  0.10989686  0.97824872  0.68084589    -0.79860
Co1609     Co  0.06680999  0.89926589  0.63456154     1.51530
Co1610     Co  0.14973563  0.97136853  0.63015229     1.51690
Co1611     Co  0.08101581  0.94589215  0.64659243     1.51570
Co1612     Co  0.11092114  0.91714832  0.57321656     1.51470
O1613       O  0.10714110  0.93502694  0.61784884    -1.41760
C1614       C  0.09369404  0.86437589  0.61954948     1.09790
C1615       C  0.13281865  0.97833013  0.69253744     1.09880
C1616       C  0.04621428  0.88938050  0.68797189     1.09820
C1617       C  0.16946984  0.93053531  0.60602989     1.09790
O1618       O  0.17517203  0.65907770  0.84233994    -0.79820
O1619       O  0.12161153  0.52919789  0.87630278    -0.79850
O1620       O  0.20455108  0.58532275  0.81374233    -0.79860
O1621       O  0.12400091  0.59427209  0.91932299    -0.79800
O1622       O  0.15767956  0.55271735  0.82574117    -0.79920
O1623       O  0.12909955  0.60359336  0.86577492    -0.79840
O1624       O  0.12430087  0.54050267  0.92950011    -0.79820
O1625       O  0.17910917  0.62137329  0.81803850    -0.79860
C1626       C  0.17315048  0.64321647  0.81628137     1.09870
C1627       C  0.11001056  0.52264409  0.90457854     1.09750
C1628       C  0.17938142  0.56104124  0.80597777     1.09890
C1629       C  0.11357868  0.59784860  0.89241008     1.09770
O1630       O  0.16883302  0.65050816  0.90961042    -0.79830
O1631       O  0.21028283  0.55937828  0.86321832    -0.79900
O1632       O  0.24000715  0.64782540  0.82991047    -0.79840
O1633       O  0.18997183  0.57920683  0.94485399    -0.79820
O1634       O  0.17161240  0.53529904  0.91666334    -0.79870
O1635       O  0.22148879  0.65866668  0.87476897    -0.79840
O1636       O  0.18770235  0.63098379  0.94027357    -0.79790
O1637       O  0.23485751  0.60893745  0.87724275    -0.79860
Co1638     Co  0.17441430  0.62840253  0.86923729     1.51530
Co1639     Co  0.16557613  0.54670510  0.87084624     1.51690
Co1640     Co  0.20606784  0.61485138  0.85081841     1.51570
Co1641     Co  0.15789814  0.58673472  0.93105001     1.51470
O1642       O  0.17293514  0.58942928  0.88375186    -1.41760
C1643       C  0.17657392  0.64799648  0.93828499     1.09790
C1644       C  0.23516165  0.58436965  0.87101261     1.09880
C1645       C  0.24381175  0.66644180  0.85397660     1.09820
C1646       C  0.18490689  0.55211242  0.94253653     1.09790
O1647       O  0.03304950  0.61868717  0.66455866    -0.79820
O1648       O  0.13112734  0.70478500  0.56594513    -0.79850
O1649       O  0.04528300  0.66529455  0.57104949    -0.79860
O1650       O  0.13219642  0.64024016  0.62643073    -0.79800
O1651       O  0.08171977  0.71266449  0.56204123    -0.79920
O1652       O  0.08243023  0.61742512  0.63533032    -0.79840
O1653       O  0.10811645  0.65599788  0.57711209    -0.79820
O1654       O  0.02531370  0.62486163  0.61401206    -0.79860
C1655       C  0.01658750  0.60854702  0.63881974     1.09870
C1656       C  0.12406923  0.67733030  0.55723098     1.09750
C1657       C  0.05870492  0.68709117  0.55200857     1.09890
C1658       C  0.10664705  0.61553715  0.62988176     1.09770
O1659       O  0.08381131  0.63417581  0.69976086    -0.79830
O1660       O  0.09615775  0.74057221  0.62995870    -0.79900
O1661       O  0.02925926  0.66987485  0.66555856    -0.79840
O1662       O  0.15719389  0.70207374  0.61862838    -0.79820
O1663       O  0.14206918  0.73288611  0.63484917    -0.79870
O1664       O  0.06974400  0.67869090  0.69333683    -0.79840
O1665       O  0.12519110  0.67237501  0.67696468    -0.79790
O1666       O  0.04823254  0.71346914  0.61483335    -0.79860
Co1667     Co  0.07794684  0.65175023  0.66253852     1.51530
Co1668     Co  0.11125282  0.72034567  0.60014813     1.51690
Co1669     Co  0.04005688  0.66916419  0.61724075     1.51570
Co1670     Co  0.11425695  0.66470369  0.62580636     1.51470
O1671       O  0.08420798  0.67984974  0.62437982    -1.41760
C1672       C  0.11243091  0.65300099  0.70075562     1.09790
C1673       C  0.07186177  0.73938274  0.62308478     1.09880
C1674       C  0.04308676  0.67498724  0.69317964     1.09820
C1675       C  0.16376440  0.72918176  0.62733302     1.09790
O1676       O  0.39796606  0.92064239  0.66383581    -0.79820
O1677       O  0.34410423  0.94281790  0.55515199    -0.79850
O1678       O  0.33560735  0.85340487  0.58760104    -0.79860
O1679       O  0.38022309  0.98209816  0.61653365    -0.79800
O1680       O  0.34785544  0.89306102  0.55733435    -0.79920
O1681       O  0.39890249  0.97244704  0.65814459    -0.79840
O1682       O  0.33189149  0.96999006  0.58859162    -0.79820
O1683       O  0.38584102  0.89443875  0.61816737    -0.79860
C1684       C  0.40457962  0.90720056  0.64151365     1.09870
C1685       C  0.34365711  0.96728514  0.56148485     1.09750
C1686       C  0.34492810  0.86721249  0.56032876     1.09890
C1687       C  0.40264245  0.98939369  0.63438689     1.09770
O1688       O  0.33548048  0.94359746  0.68469429    -0.79830
O1689       O  0.28807863  0.85807492  0.58752618    -0.79900
O1690       O  0.34427972  0.85204154  0.65936082    -0.79840
O1691       O  0.29283717  0.92519849  0.63800790    -0.79820
O1692       O  0.28555283  0.91083147  0.58569022    -0.79870
O1693       O  0.33718550  0.88679734  0.68654813    -0.79840
O1694       O  0.33895862  0.98353532  0.66029893    -0.79790
O1695       O  0.29799455  0.85958045  0.63998745    -0.79860
Co1696     Co  0.36471125  0.92972872  0.66776505     1.51530
Co1697     Co  0.31822950  0.90215746  0.57457087     1.51690
Co1698     Co  0.34235889  0.87957587  0.62995916     1.51570
Co1699     Co  0.33793629  0.95230124  0.62984244     1.51470
O1700       O  0.34507542  0.91810482  0.61671860    -1.41760
C1701       C  0.33988308  0.97112475  0.68683648     1.09790
C1702       C  0.28011995  0.84626505  0.61589017     1.09880
C1703       C  0.34299617  0.86464650  0.68700226     1.09820
C1704       C  0.27612191  0.91687219  0.61232963     1.09790
C1705       C  0.48736731  0.57800665  0.63661021    -0.05030
C1706       C  0.48612561  0.55112701  0.64674789    -0.02140
C1707       C  0.46001069  0.52187444  0.64004122     0.02850
C1708       C  0.43244899  0.51907137  0.62965097    -0.05020
C1709       C  0.43337467  0.54608030  0.61952558    -0.02130
C1710       C  0.46121711  0.57498305  0.62095819     0.02840
C1711       C  0.01190640  0.55301191  0.66318258     0.37490
C1712       C  0.40574219  0.54485345  0.60900994     0.37480
C1713       C  0.46254407  0.60159011  0.60678017     0.35910
C1714       C  0.46283834  0.49501854  0.64068136     0.35910
N1715       N  0.46364518  0.62265985  0.59504118    -0.38910
N1716       N  0.46723747  0.97481190  0.63960653    -0.38910
N1717       N  0.38384570  0.54436377  0.60096260    -0.38360
N1718       N  0.03200850  0.55363132  0.67652452    -0.38360
C1719       C  0.19460440  0.75751024  0.62306012    -0.05030
C1720       C  0.19721465  0.78110064  0.60307540    -0.02140
C1721       C  0.22467832  0.80990805  0.60139101     0.02850
C1722       C  0.25060468  0.81595980  0.61973030    -0.05020
C1723       C  0.24809131  0.79214101  0.63985803    -0.02130
C1724       C  0.22026267  0.76308100  0.64124465     0.02840
C1725       C  0.17144340  0.77585140  0.58366954     0.37490
C1726       C  0.27370097  0.79636909  0.65902751     0.37480
C1727       C  0.21773984  0.73912501  0.66206852     0.35910
C1728       C  0.22555699  0.83356426  0.58125048     0.35910
N1729       N  0.21577121  0.72001756  0.67863659    -0.38910
N1730       N  0.22573984  0.85196350  0.56493418    -0.38910
N1731       N  0.29264643  0.79735368  0.67524004    -0.38360
N1732       N  0.15113664  0.77213902  0.56792961    -0.38360
C1733       C  0.16006886  0.64664887  0.78520340    -0.05030
C1734       C  0.16867260  0.67609690  0.77339486    -0.02140
C1735       C  0.15362597  0.67859978  0.74552814     0.02850
C1736       C  0.13025762  0.65165278  0.72893483    -0.05020
C1737       C  0.12272823  0.62234646  0.74023642    -0.02130
C1738       C  0.13686062  0.61985770  0.76846120     0.02840
C1739       C  0.19281939  0.70382142  0.79007055     0.37490
C1740       C  0.10093565  0.59401372  0.72258168     0.37480
C1741       C  0.12552497  0.58935533  0.78143907     0.35910
C1742       C  0.16128017  0.70884815  0.73497692     0.35910
N1743       N  0.11574361  0.56484901  0.79142644    -0.38910
N1744       N  0.16733775  0.73301256  0.72662830    -0.38910
N1745       N  0.08424077  0.57048970  0.70956227    -0.38360
N1746       N  0.21209445  0.72591763  0.80343985    -0.38360
C1747       C  0.16518764  0.65724042  0.96897483    -0.05030
C1748       C  0.14938002  0.63529341  0.49351720    -0.02140
C1749       C  0.13409430  0.64114227  0.51976817     0.02850
C1750       C  0.13689936  0.67043336  0.52537088    -0.05020
C1751       C  0.15331865  0.69282225  0.50082708    -0.02130
C1752       C  0.16648929  0.68589893  0.97256528     0.02840
C1753       C  0.14672787  0.60519365  0.49139021     0.37490
C1754       C  0.15575599  0.72266322  0.50320903     0.37480
C1755       C  0.18186162  0.70860394  0.94732943     0.35910
C1756       C  0.11297632  0.61493378  0.53847135     0.35910
N1757       N  0.19408811  0.72672616  0.92716392    -0.38910
N1758       N  0.09558470  0.59217452  0.55058736    -0.38910
N1759       N  0.15796158  0.74664420  0.50412837    -0.38360
N1760       N  0.14350804  0.58078457  0.99119774    -0.38360
C1761       C  0.18901054  0.53823572  0.97267437    -0.05030
C1762       C  0.19095065  0.55174603  0.50478236    -0.02140
C1763       C  0.18001993  0.53289669  0.53263188     0.02850
C1764       C  0.16782743  0.00070350  0.52859940    -0.05020
C1765       C  0.17123606  0.98863855  0.99755141    -0.02130
C1766       C  0.18398135  0.00813211  0.97043887     0.02840
C1767       C  0.20442490  0.58492044  0.50956821     0.37490
C1768       C  0.16170124  0.95628558  0.99318421     0.37480
C1769       C  0.19410895  0.99829607  0.94115176     0.35910
C1770       C  0.17966021  0.54662202  0.56478671     0.35910
N1771       N  0.20264069  0.99071235  0.91792026    -0.38910
N1772       N  0.17980468  0.55843879  0.59002490    -0.38910
N1773       N  0.15445506  0.93057381  0.98931070    -0.38360
N1774       N  0.21532197  0.61138159  0.51360855    -0.38360
C1775       C  0.17465889  0.53997196  0.77681503    -0.05030
C1776       C  0.15749668  0.50748781  0.78102034    -0.02140
C1777       C  0.14527091  0.98688441  0.75329494     0.02850
C1778       C  0.15072631  0.99859771  0.72133073    -0.05020
C1779       C  0.17393585  0.52989685  0.71710092    -0.02130
C1780       C  0.18452015  0.55101492  0.74473004     0.02840
C1781       C  0.15274830  0.99514967  0.81386508     0.37490
C1782       C  0.18644863  0.54055986  0.68449557     0.37480
C1783       C  0.20382653  0.58394386  0.73991536     0.35910
C1784       C  0.12791924  0.95370931  0.75753293     0.35910
N1785       N  0.21911583  0.61026090  0.73610653    -0.38910
N1786       N  0.11433717  0.92724519  0.76092065    -0.38910
N1787       N  0.19717324  0.54947509  0.65878572    -0.38360
N1788       N  0.14918558  0.98519825  0.83998153    -0.38360
C1789       C  0.10950096  0.53114246  0.62247549    -0.05030
C1790       C  0.12634503  0.55470056  0.64657755    -0.02140
C1791       C  0.12882740  0.58346880  0.64456189     0.02850
C1792       C  0.10569372  0.58544182  0.62815604    -0.05020
C1793       C  0.08232741  0.55840525  0.61143776    -0.02130
C1794       C  0.08616628  0.53267047  0.60548325     0.02840
C1795       C  0.12703274  0.54578358  0.67987103     0.37490
C1796       C  0.05503615  0.55708716  0.59944935     0.37480
C1797       C  0.06553536  0.50776928  0.58280096     0.35910
C1798       C  0.15261663  0.60945457  0.66391117     0.35910
N1799       N  0.04900677  0.98797561  0.56463559    -0.38910
N1800       N  0.17176943  0.63005790  0.67925710    -0.38910
N1801       N  0.03342750  0.55592354  0.58915504    -0.38360
N1802       N  0.12462982  0.53963945  0.70749570    -0.38360
C1803       C  0.09079586  0.83340529  0.62322369    -0.05030
C1804       C  0.09965339  0.82075682  0.59650054    -0.02140
C1805       C  0.08975675  0.78908012  0.59477749     0.02850
C1806       C  0.07367150  0.76973209  0.62147812    -0.05020
C1807       C  0.06774288  0.78301736  0.64996120    -0.02130
C1808       C  0.07620857  0.81463320  0.65094566     0.02840
C1809       C  0.12092066  0.84066416  0.57144956     0.37490
C1810       C  0.05361795  0.76425742  0.67863089     0.37480
C1811       C  0.07201187  0.82807960  0.68151969     0.35910
C1812       C  0.09616966  0.77713619  0.56444938     0.35910
N1813       N  0.06941650  0.83888150  0.70631349    -0.38910
N1814       N  0.10161045  0.77002579  0.53875176    -0.38910
N1815       N  0.04237516  0.74924498  0.70147443    -0.38360
N1816       N  0.13811425  0.85635443  0.55165288    -0.38360
C1817       C  0.19493774  0.92413737  0.60672593    -0.05030
C1818       C  0.21663789  0.93431788  0.58092883    -0.02140
C1819       C  0.24165882  0.92988012  0.58197214     0.02850
C1820       C  0.24741981  0.91811771  0.61066737    -0.05020
C1821       C  0.22575723  0.90797232  0.63666776    -0.02130
C1822       C  0.19930627  0.91034616  0.63439061     0.02840
C1823       C  0.21519593  0.95218520  0.55455125     0.37490
C1824       C  0.22993843  0.89381543  0.66501771     0.37480
C1825       C  0.17639032  0.89825841  0.66039819     0.35910
C1826       C  0.26129730  0.93774910  0.55292167     0.35910
N1827       N  0.15803090  0.88854899  0.68107373    -0.38910
N1828       N  0.27617406  0.94338215  0.52922456    -0.38910
N1829       N  0.23329815  0.88243557  0.68757375    -0.38360
N1830       N  0.21532406  0.96728903  0.53372058    -0.38360
C1831       C  0.49684592  0.92410523  0.64380433    -0.05030
C1832       C  0.48326344  0.92835990  0.67307135    -0.02140
C1833       C  0.45200081  0.91917160  0.67350643     0.02850
C1834       C  0.43406125  0.90728918  0.64413752    -0.05020
C1835       C  0.44621952  0.89855497  0.61711768    -0.02130
C1836       C  0.47795541  0.90983493  0.61548968     0.02840
C1837       C  0.50119991  0.94405093  0.70262305     0.37490
C1838       C  0.42584818  0.87387334  0.59419591     0.37480
C1839       C  0.49135717  0.90993273  0.58346409     0.35910
C1840       C  0.43843009  0.92157519  0.70473130     0.35910
N1841       N  0.50208694  0.91099660  0.55762608    -0.38910
N1842       N  0.42775808  0.92343020  0.72968463    -0.38910
N1843       N  0.40971139  0.85314556  0.57675380    -0.38360
N1844       N  0.01430651  0.95724263  0.72659560    -0.38360
C1845       C  0.50003029  0.65450738  0.96751244    -0.05030
C1846       C  0.01393226  0.68615088  0.97698644    -0.02140
C1847       C  0.03306535  0.69770631  0.50533503     0.02850
C1848       C  0.04483717  0.68028682  0.51844908    -0.05020
C1849       C  0.03328418  0.64967169  0.50552050    -0.02130
C1850       C  0.00761886  0.63588122  0.98481081     0.02840
C1851       C  0.00610338  0.70588434  0.96002219     0.37490
C1852       C  0.04487914  0.63067036  0.51672400     0.37480
C1853       C  0.48656098  0.60281483  0.98586335     0.35910
C1854       C  0.03467768  0.72358380  0.52394005     0.35910
N1855       N  0.46886468  0.57679322  0.98869108    -0.38910
N1856       N  0.03357470  0.74325707  0.53838150    -0.38910
N1857       N  0.05338735  0.61491006  0.52554481    -0.38360
N1858       N  0.50020378  0.72189925  0.94647788    -0.38360
C1859       C  0.02541570  0.67141584  0.72541755    -0.05030
C1860       C  0.99270640  0.65383892  0.72541581    -0.02140
C1861       C  0.47597816  0.64430831  0.75539496     0.02850
C1862       C  0.49107247  0.65237353  0.78648471    -0.05020
C1863       C  0.02313704  0.67357165  0.78700286    -0.02130
C1864       C  0.04026169  0.68240133  0.75679938     0.02840
C1865       C  0.47530170  0.64436418  0.69473421     0.37490
C1866       C  0.03876522  0.68555904  0.81857667     0.37480
C1867       C  0.07320506  0.70298791  0.75828773     0.35910
C1868       C  0.44264623  0.62625225  0.75401454     0.35910
N1869       N  0.09950884  0.71949180  0.75959691    -0.38910
N1870       N  0.41614877  0.61183251  0.75285431    -0.38910
N1871       N  0.05124626  0.69514601  0.84378546    -0.38360
N1872       N  0.46072605  0.63670319  0.67076017    -0.38360
C1873       C  0.38467777  0.53092383  0.98116574    -0.05030
C1874       C  0.36219950  0.53224363  0.00162590    -0.02140
C1875       C  0.34912532  0.51256177  0.52900126     0.02850
C1876       C  0.35969564  0.99281798  0.53745416    -0.05020
C1877       C  0.38528463  0.99542282  0.52028373    -0.02130
C1878       C  0.39548544  0.51149998  0.99077179     0.02840
C1879       C  0.35192082  0.55331809  0.99456572     0.37490
C1880       C  0.40252918  0.98288887  0.53395467     0.37480
C1881       C  0.41494437  0.50511508  0.96932886     0.35910
C1882       C  0.32515168  0.51300241  0.54847368     0.35910
N1883       N  0.42972393  0.49906433  0.95219246    -0.38910
N1884       N  0.30618217  0.51366146  0.56407653    -0.38910
N1885       N  0.41689845  0.97378399  0.54522209    -0.38360
N1886       N  0.34356556  0.57008649  0.98920670    -0.38360
C1887       C  0.34594935  0.98716954  0.72004353    -0.05030
C1888       C  0.37585750  0.50179742  0.73293536    -0.02140
C1889       C  0.38151053  0.51045240  0.76650944     0.02850
C1890       C  0.35918929  0.51178352  0.78642865    -0.05020
C1891       C  0.32884904  0.49737755  0.77408347    -0.02130
C1892       C  0.32206330  0.98402209  0.74122471     0.02840
C1893       C  0.40247407  0.51286274  0.71206630     0.37490
C1894       C  0.30489760  0.49653955  0.79471594     0.37480
C1895       C  0.29098583  0.96851887  0.72868335     0.35910
C1896       C  0.41184930  0.52077599  0.77945659     0.35910
N1897       N  0.26617506  0.95628142  0.71860238    -0.38910
N1898       N  0.43656305  0.52969894  0.78820366    -0.38910
N1899       N  0.28566971  0.49570504  0.81122547    -0.38360
N1900       N  0.42632765  0.52500079  0.69973495    -0.38360
C1901       C  0.02487331  0.59214615  0.89330999    -0.05030
C1902       C  0.03294392  0.57845342  0.91840950    -0.02140
C1903       C  0.06209875  0.58163216  0.91893888     0.02850
C1904       C  0.08359400  0.59700454  0.89334035    -0.05020
C1905       C  0.07582324  0.61122373  0.86889307    -0.02130
C1906       C  0.04625608  0.60713921  0.86774249     0.02840
C1907       C  0.01109941  0.55869519  0.94296660     0.37490
C1908       C  0.09874137  0.63317987  0.84682156     0.37480
C1909       C  0.03717556  0.61564988  0.83814255     0.35910
C1910       C  0.06887559  0.56740617  0.94555339     0.35910
N1911       N  0.02991974  0.62112567  0.81361124    -0.38910
N1912       N  0.07370219  0.55581389  0.96683228    -0.38910
N1913       N  0.11594286  0.65205734  0.82946168    -0.38360
N1914       N  0.99490355  0.54212841  0.96281538    -0.38360
C1915       C  0.32316509  0.58932607  0.86451993    -0.05030
C1916       C  0.31446981  0.59923493  0.89400228    -0.02140
C1917       C  0.28577225  0.59740364  0.89623645     0.02850
C1918       C  0.26523594  0.58566833  0.86911734    -0.05020
C1919       C  0.27453527  0.57713649  0.83920820    -0.02130
C1920       C  0.30342291  0.57954940  0.83670553     0.02840
C1921       C  0.33549561  0.61243417  0.92184948     0.37490
C1922       C  0.25484621  0.56614734  0.81028753     0.37480
C1923       C  0.31250720  0.57167743  0.80521742     0.35910
C1924       C  0.27692562  0.60666537  0.92695547     0.35910
N1925       N  0.31979126  0.56579139  0.77993155    -0.38910
N1926       N  0.26979197  0.61395925  0.95147119    -0.38910
N1927       N  0.24029205  0.55712410  0.78631636    -0.38360
N1928       N  0.35228116  0.62317741  0.94404543    -0.38360
C1929       C  0.02770421  0.86053698  0.53784324    -0.05030
C1930       C  0.49566755  0.84657529  0.53922290    -0.02140
C1931       C  0.47850983  0.83781293  0.50940366     0.02850
C1932       C  0.49319615  0.84114259  0.97805864    -0.05020
C1933       C  0.02388419  0.84828180  0.97790209    -0.02130
C1934       C  0.04127098  0.85886552  0.00750431     0.02840
C1935       C  0.48049079  0.84156993  0.57112518     0.37490
C1936       C  0.03744288  0.84379571  0.94793603     0.37480
C1937       C  0.07298443  0.86692805  0.00708578     0.35910
C1938       C  0.44563001  0.82476569  0.51127015     0.35910
N1939       N  0.09813650  0.87286615  0.00684431    -0.38910
N1940       N  0.41940419  0.81433510  0.51271088    -0.38910
N1941       N  0.04820150  0.83917724  0.92454614    -0.38360
N1942       N  0.46836335  0.83725198  0.59661119    -0.38360
C1943       C  0.49654071  0.86648166  0.78116167    -0.05030
C1944       C  0.49218117  0.84265784  0.75798032    -0.02140
C1945       C  0.00878018  0.84987755  0.72794300     0.02850
C1946       C  0.03107245  0.88096955  0.72118379    -0.05020
C1947       C  0.03695771  0.90445379  0.74567943    -0.02130
C1948       C  0.02029866  0.89717265  0.77550954     0.02840
C1949       C  0.47081402  0.81041542  0.76453576     0.37490
C1950       C  0.05854010  0.93690843  0.74026047     0.37480
C1951       C  0.02863482  0.92173527  0.80071730     0.35910
C1952       C  0.00218519  0.82490016  0.70397181     0.35910
N1953       N  0.03565935  0.94160554  0.82039295    -0.38910
N1954       N  0.99661657  0.80484332  0.68499298    -0.38910
N1955       N  0.07476052  0.96327426  0.73770082    -0.38360
N1956       N  0.45422791  0.78443583  0.76904934    -0.38360
C1957       C  0.41385071  0.99037506  0.86961798    -0.05030
C1958       C  0.39118862  0.96138362  0.88223108    -0.02140
C1959       C  0.39543174  0.93572205  0.88096600     0.02850
C1960       C  0.42172927  0.93781403  0.86570251    -0.05020
C1961       C  0.44419711  0.96658872  0.85275729    -0.02130
C1962       C  0.44086743  0.99262036  0.85571688     0.02840
C1963       C  0.36354854  0.95761045  0.89771494     0.37490
C1964       C  0.47187326  0.97038093  0.83705056     0.37480
C1965       C  0.46638166  0.52169917  0.84458219     0.35910
C1966       C  0.37217507  0.90712097  0.89544481     0.35910
N1967       N  0.48714604  0.54422076  0.83502682    -0.38910
N1968       N  0.35331658  0.88459137  0.90720099    -0.38910
N1969       N  0.49391811  0.97367527  0.82445272    -0.38360
N1970       N  0.34148818  0.95438130  0.91020369    -0.38360
C1971       C  0.42275205  0.73812616  0.88888830    -0.05030
C1972       C  0.42610000  0.72368444  0.91644177    -0.02140
C1973       C  0.42415179  0.69480898  0.91217538     0.02850
C1974       C  0.42041868  0.68072580  0.87992085    -0.05020
C1975       C  0.41367245  0.69371247  0.85316487    -0.02130
C1976       C  0.41458758  0.72191906  0.85783300     0.02840
C1977       C  0.43310596  0.73903351  0.94908944     0.37490
C1978       C  0.40609914  0.67877163  0.82024918     0.37480
C1979       C  0.40714961  0.73417770  0.83009386     0.35910
C1980       C  0.42590230  0.67991744  0.94137223     0.35910
N1981       N  0.40127776  0.74339744  0.80742124    -0.38910
N1982       N  0.42715765  0.66812083  0.96479320    -0.38910
N1983       N  0.40018218  0.66716336  0.79392719    -0.38360
N1984       N  0.43870391  0.75120878  0.97513070    -0.38360
C1985       C  0.08119263  0.99195828  0.90780134    -0.05030
C1986       C  0.08258763  0.96474593  0.90770085    -0.02140
C1987       C  0.05609692  0.93534702  0.90116592     0.02850
C1988       C  0.02662260  0.93190175  0.90042700    -0.05020
C1989       C  0.02541085  0.95936571  0.90459415    -0.02130
C1990       C  0.05241229  0.98862122  0.90284609     0.02840
C1991       C  0.11172549  0.96670131  0.91031932     0.37490
C1992       C  0.99697614  0.95877205  0.90984124     0.37480
C1993       C  0.05032428  0.51280781  0.88754894     0.35910
C1994       C  0.06032708  0.90974448  0.89203899     0.35790
N1995       N  0.04733596  0.53008339  0.87256939    -0.38910
N1996       N  0.06450133  0.89013342  0.88330592    -0.38910
N1997       N  0.47508835  0.95968768  0.91513992    -0.38360
N1998       N  0.13409176  0.96630286  0.91175316    -0.38360
C1999       C  0.33396004  0.74819578  0.87209946    -0.05030
C2000       C  0.32511659  0.73468645  0.83961108    -0.02140
C2001       C  0.29664525  0.70717000  0.83410044     0.02850
C2002       C  0.27439629  0.69531377  0.85975751    -0.05020
C2003       C  0.28220356  0.71090123  0.89134430    -0.02130
C2004       C  0.31234405  0.73517085  0.89813640     0.02840
C2005       C  0.34429014  0.74932333  0.81105932     0.37490
C2006       C  0.25955243  0.70334477  0.91729185     0.37480
C2007       C  0.32027867  0.74685425  0.93227719     0.35910
C2008       C  0.29058301  0.69176183  0.80147936     0.35910
N2009       N  0.32636807  0.75563989  0.95961952    -0.38910
N2010       N  0.28620422  0.67940714  0.77559608    -0.38910
N2011       N  0.24238169  0.69890216  0.93858903    -0.38360
N2012       N  0.35860856  0.76092268  0.78770382    -0.38360
C2013       C  0.37028460  0.85111281  0.96449755    -0.05030
C2014       C  0.33976832  0.83196788  0.97511477    -0.02140
C2015       C  0.33188276  0.83420445  0.00857386     0.02850
C2016       C  0.35432824  0.85619635  0.53096891    -0.05020
C2017       C  0.38410684  0.87694631  0.51925290    -0.02130
C2018       C  0.39183444  0.87479714  0.98636465     0.02840
C2019       C  0.31630118  0.81153150  0.95141049     0.37490
C2020       C  0.40655577  0.90259754  0.54028026     0.37480
C2021       C  0.42238093  0.89772816  0.97519865     0.35910
C2022       C  0.30031391  0.81559368  0.01934346     0.35910
N2023       N  0.44699661  0.91578501  0.46715644    -0.38910
N2024       N  0.27509839  0.80086985  0.02790481    -0.38910
N2025       N  0.42490020  0.92323003  0.55629404    -0.38360
N2026       N  0.29740127  0.79569616  0.93236978    -0.38360
C2027       C  0.36967817  0.84761007  0.78196485    -0.05030
C2028       C  0.37946960  0.84002152  0.75188172    -0.02140
C2029       C  0.36945029  0.84379835  0.72090163     0.02850
C2030       C  0.34913202  0.85507010  0.71935412    -0.05020
C2031       C  0.33761099  0.86052605  0.74943821    -0.02130
C2032       C  0.34805239  0.85728181  0.78035106     0.02840
C2033       C  0.39980633  0.82801237  0.75243736     0.37490
C2034       C  0.31484572  0.86961826  0.74891812     0.37480
C2035       C  0.33718969  0.86546631  0.81031722     0.35910
C2036       C  0.38135577  0.83713141  0.69074426     0.35910
N2037       N  0.32808114  0.87204493  0.83379668    -0.38910
N2038       N  0.39092129  0.83167940  0.66685570    -0.38910
N2039       N  0.29678538  0.87695504  0.74860528    -0.38360
N2040       N  0.41590006  0.81824625  0.75247484    -0.38360
O2041       O  0.94428802  0.41003701  0.34134448    -0.79820
O2042       O  0.95595759  0.34462550  0.44757728    -0.79850
O2043       O  0.86860650  0.33162214  0.40736249    -0.79860
O2044       O  0.00074222  0.37884113  0.37827742    -0.79800
O2045       O  0.90917045  0.34908235  0.43648427    -0.79920
O2046       O  0.97223692  0.39872080  0.39198653    -0.79840
O2047       O  0.98188977  0.32878564  0.41892254    -0.79820
O2048       O  0.91097325  0.38623078  0.38018510    -0.79860
C2049       C  0.92563750  0.41020125  0.36212138     1.09870
C2050       C  0.97655063  0.33820995  0.44645568     1.09750
C2051       C  0.88259225  0.34366562  0.43437258     1.09890
C2052       C  0.99828666  0.40123338  0.39070655     1.09770
O2053       O  0.97387240  0.38085694  0.32540196    -0.79830
O2054       O  0.87490510  0.28531492  0.40784190    -0.79900
O2055       O  0.86684040  0.34155077  0.34100287    -0.79840
O2056       O  0.94276746  0.28782598  0.36710385    -0.79820
O2057       O  0.92477843  0.28160545  0.41822738    -0.79870
O2058       O  0.91031866  0.35187615  0.31758151    -0.79840
O2059       O  0.96434513  0.33400083  0.32421379    -0.79790
O2060       O  0.87718518  0.29576299  0.35532551    -0.79860
Co2061     Co  0.94112036  0.37388720  0.35757429     1.51530
Co2062     Co  0.91694678  0.31659563  0.42564024     1.51690
Co2063     Co  0.89624080  0.33971400  0.36720307     1.51570
Co2064     Co  0.96998129  0.33269134  0.37212664     1.51470
O2065       O  0.93274249  0.33680447  0.38240684    -1.41760
C2066       C  0.97691562  0.35989100  0.31131412     1.09790
C2067       C  0.86411280  0.27736045  0.37845975     1.09880
C2068       C  0.88270555  0.34684919  0.31485358     1.09820
C2069       C  0.92992533  0.27076302  0.39147232     1.09790
O2070       O  0.95114522  0.10902594  0.31448797    -0.79820
O2071       O  0.93374740  0.04489717  0.36748749    -0.79850
O2072       O  0.48748734  0.10675097  0.37579373    -0.79860
O2073       O  0.85589087  0.03200128  0.34144281    -0.79800
O2074       O  0.97555043  0.07512325  0.41611497    -0.79920
O2075       O  0.89673250  0.05840998  0.31104880    -0.79840
O2076       O  0.88678046  0.01728727  0.38560682    -0.79820
O2077       O  0.97647046  0.14998566  0.34532873    -0.79860
C2078       C  0.97272232  0.13666091  0.31710442     1.09870
C2079       C  0.91086668  0.01872258  0.37350359     1.09750
C2080       C  0.49489272  0.09146786  0.39499442     1.09890
C2081       C  0.87081696  0.03477873  0.31494820     1.09770
O2082       O  0.86653720  0.09000958  0.33756159    -0.79830
O2083       O  0.95702246  0.11411235  0.43618833    -0.79900
O2084       O  0.93445980  0.14460241  0.39679379    -0.79840
O2085       O  0.88240808  0.05943875  0.43559255    -0.79820
O2086       O  0.91908403  0.05024849  0.43468559    -0.79870
O2087       O  0.92249731  0.14234297  0.34450869    -0.79840
O2088       O  0.85675237  0.07657404  0.38969422    -0.79790
O2089       O  0.99154078  0.15570603  0.41028341    -0.79860
Co2090     Co  0.90988472  0.09914343  0.32922884     1.51530
Co2091     Co  0.94402249  0.07923337  0.39927409     1.51690
Co2092     Co  0.95767848  0.12408547  0.38618825     1.51570
Co2093     Co  0.87354111  0.04926685  0.38755724     1.51470
O2094       O  0.91571404  0.08640911  0.37375493    -1.41760
C2095       C  0.85085999  0.08598569  0.36401099     1.09790
C2096       C  0.98162780  0.14137964  0.43692477     1.09880
C2097       C  0.92524861  0.15398972  0.37372651     1.09820
C2098       C  0.89629393  0.04845476  0.44954675     1.09790
O2099       O  0.53771521  0.41577476  0.12438017    -0.79820
O2100       O  0.66566669  0.48476488  0.08403730    -0.79850
O2101       O  0.58888994  0.47702965  0.11458102    -0.79860
O2102       O  0.56951050  0.40663561  0.06064381    -0.79800
O2103       O  0.63714625  0.50435239  0.12986002    -0.79920
O2104       O  0.54512940  0.36989660  0.09516351    -0.79840
O2105       O  0.62553250  0.45663339  0.05179783    -0.79820
O2106       O  0.54861698  0.45020519  0.16485151    -0.79860
C2107       C  0.52915435  0.43069698  0.14425766     1.09870
C2108       C  0.65203980  0.47979253  0.05647892     1.09750
C2109       C  0.61245596  0.50299183  0.12064667     1.09890
C2110       C  0.54776125  0.37981295  0.06621311     1.09770
O2111       O  0.58925748  0.37819761  0.14388170    -0.79830
O2112       O  0.64204082  0.46285204  0.17725971    -0.79900
O2113       O  0.57141834  0.41542139  0.18423723    -0.79840
O2114       O  0.65388467  0.42544185  0.07970491    -0.79820
O2115       O  0.66537599  0.44325473  0.13139516    -0.79870
O2116       O  0.53418364  0.37188942  0.16242624    -0.79840
O2117       O  0.59715001  0.37491411  0.09049751    -0.79790
O2118       O  0.60989687  0.47824873  0.18084590    -0.79860
Co2119     Co  0.56680999  0.39926589  0.13456155     1.51530
Co2120     Co  0.64973564  0.47136853  0.13015229     1.51690
Co2121     Co  0.58101582  0.44589216  0.14659245     1.51570
Co2122     Co  0.61092113  0.41714832  0.07321657     1.51470
O2123       O  0.60714110  0.43502694  0.11784885    -1.41760
C2124       C  0.59369403  0.36437589  0.11954949     1.09790
C2125       C  0.63281867  0.47833015  0.19253745     1.09880
C2126       C  0.54621429  0.38938051  0.18797191     1.09820
C2127       C  0.66946983  0.43053530  0.10602989     1.09790
O2128       O  0.67517205  0.15907770  0.34233993    -0.79820
O2129       O  0.62161157  0.02919789  0.37630275    -0.79850
O2130       O  0.70455112  0.08532277  0.31374232    -0.79860
O2131       O  0.62400093  0.09427207  0.41932296    -0.79800
O2132       O  0.65767961  0.05271735  0.32574115    -0.79920
O2133       O  0.62909956  0.10359335  0.36577489    -0.79840
O2134       O  0.62430090  0.04050266  0.42950008    -0.79820
O2135       O  0.67910922  0.12137330  0.31803849    -0.79860
C2136       C  0.67315052  0.14321648  0.31628135     1.09870
C2137       C  0.61001060  0.02264408  0.40457851     1.09750
C2138       C  0.67938147  0.06104126  0.30597775     1.09890
C2139       C  0.61357870  0.09784858  0.39241005     1.09770
O2140       O  0.66883302  0.15050815  0.40961040    -0.79830
O2141       O  0.71028287  0.05937829  0.36321830    -0.79900
O2142       O  0.74000720  0.14782541  0.32991049    -0.79840
O2143       O  0.68997185  0.07920683  0.44485397    -0.79820
O2144       O  0.67161244  0.03529904  0.41666332    -0.79870
O2145       O  0.72148880  0.15866668  0.37476898    -0.79840
O2146       O  0.68770236  0.13098378  0.44027355    -0.79790
O2147       O  0.73485753  0.10893745  0.37724276    -0.79860
Co2148     Co  0.67441432  0.12840253  0.36923727     1.51530
Co2149     Co  0.66557617  0.04670511  0.37084622     1.51690
Co2150     Co  0.70606787  0.11485138  0.35081841     1.51570
Co2151     Co  0.65789816  0.08673471  0.43104999     1.51470
O2152       O  0.67293517  0.08942928  0.38375184    -1.41760
C2153       C  0.67657392  0.14799647  0.43828497     1.09790
C2154       C  0.73516168  0.08436966  0.37101260     1.09880
C2155       C  0.74381177  0.16644181  0.35397663     1.09820
C2156       C  0.68490692  0.05211242  0.44253651     1.09790
O2157       O  0.53304951  0.11868716  0.16455865    -0.79820
O2158       O  0.63112736  0.20478501  0.06594516    -0.79850
O2159       O  0.54528298  0.16529456  0.07104951    -0.79860
O2160       O  0.63219645  0.14024017  0.12643075    -0.79800
O2161       O  0.58171978  0.21266448  0.06204124    -0.79920
O2162       O  0.58243025  0.11742512  0.13533030    -0.79840
O2163       O  0.60811649  0.15599788  0.07711211    -0.79820
O2164       O  0.52531371  0.12486163  0.11401207    -0.79860
C2165       C  0.51658751  0.10854701  0.13881973     1.09870
C2166       C  0.62406927  0.17733032  0.05723101     1.09750
C2167       C  0.55870491  0.18709117  0.05200858     1.09890
C2168       C  0.60664708  0.11553716  0.12988175     1.09770
O2169       O  0.58381133  0.13417579  0.19976086    -0.79830
O2170       O  0.59615775  0.24057220  0.12995871    -0.79900
O2171       O  0.52925927  0.16987485  0.16555858    -0.79840
O2172       O  0.65719390  0.20207374  0.11862842    -0.79820
O2173       O  0.64206917  0.23288609  0.13484922    -0.79870
O2174       O  0.56974402  0.17869088  0.19333683    -0.79840
O2175       O  0.62519111  0.17237501  0.17696470    -0.79790
O2176       O  0.54823253  0.21346913  0.11483336    -0.79860
Co2177     Co  0.57794686  0.15175021  0.16253852     1.51530
Co2178     Co  0.61125282  0.22034566  0.10014815     1.51690
Co2179     Co  0.54005688  0.16916418  0.11724077     1.51570
Co2180     Co  0.61425697  0.16470369  0.12580637     1.51470
O2181       O  0.58420799  0.17984973  0.12437982    -1.41760
C2182       C  0.61243092  0.15300098  0.20075562     1.09790
C2183       C  0.57186177  0.23938274  0.12308480     1.09880
C2184       C  0.54308677  0.17498723  0.19317965     1.09820
C2185       C  0.66376440  0.22918176  0.12733307     1.09790
O2186       O  0.89796605  0.42064237  0.16383582    -0.79820
O2187       O  0.84410421  0.44281788  0.05515200    -0.79850
O2188       O  0.83560736  0.35340486  0.08760103    -0.79860
O2189       O  0.88022307  0.48209815  0.11653366    -0.79800
O2190       O  0.84785544  0.39306101  0.05733436    -0.79920
O2191       O  0.89890248  0.47244701  0.15814457    -0.79840
O2192       O  0.83189147  0.46999004  0.08859162    -0.79820
O2193       O  0.88584104  0.39443876  0.11816737    -0.79860
C2194       C  0.90457963  0.40720056  0.14151365     1.09870
C2195       C  0.84365709  0.46728512  0.06148486     1.09750
C2196       C  0.84492809  0.36721248  0.06032875     1.09890
C2197       C  0.90264243  0.48939367  0.13438689     1.09770
O2198       O  0.83548048  0.44359744  0.18469430    -0.79830
O2199       O  0.78807863  0.35807489  0.08752619    -0.79900
O2200       O  0.84427974  0.35204154  0.15936083    -0.79840
O2201       O  0.79283715  0.42519846  0.13800792    -0.79820
O2202       O  0.78555281  0.41083144  0.08569023    -0.79870
O2203       O  0.83718549  0.38679732  0.18654815    -0.79840
O2204       O  0.83895860  0.48353530  0.16029894    -0.79790
O2205       O  0.79799457  0.35958042  0.13998745    -0.79860
Co2206     Co  0.86471124  0.42972869  0.16776505     1.51530
Co2207     Co  0.81822949  0.40215744  0.07457087     1.51690
Co2208     Co  0.84235891  0.37957586  0.12995916     1.51570
Co2209     Co  0.83793627  0.45230122  0.12984245     1.51470
O2210       O  0.84507541  0.41810480  0.11671861    -1.41760
C2211       C  0.83988307  0.47112473  0.18683650     1.09790
C2212       C  0.78011996  0.34626503  0.11589017     1.09880
C2213       C  0.84299617  0.36464648  0.18700228     1.09820
C2214       C  0.77612189  0.41687216  0.11232964     1.09790
C2215       C  0.98736732  0.07800664  0.13661022    -0.05030
C2216       C  0.98612562  0.05112700  0.14674789    -0.02140
C2217       C  0.96001070  0.02187443  0.14004122     0.02850
C2218       C  0.93244901  0.01907136  0.12965098    -0.05020
C2219       C  0.93337468  0.04608028  0.11952559    -0.02130
C2220       C  0.96121712  0.07498303  0.12095820     0.02840
C2221       C  0.51190642  0.05301193  0.16318262     0.37490
C2222       C  0.90574220  0.04485343  0.10900995     0.37480
C2223       C  0.96254408  0.10159009  0.10678017     0.35910
C2224       C  0.96283836  0.99501852  0.14068138     0.35910
N2225       N  0.96364518  0.12265983  0.09504118    -0.38910
N2226       N  0.96723747  0.47481187  0.13960622    -0.38910
N2227       N  0.88384571  0.04436374  0.10096261    -0.38360
N2228       N  0.53200852  0.05363136  0.17652459    -0.38360
C2229       C  0.69460440  0.25751024  0.12306018    -0.05030
C2230       C  0.69721463  0.28110066  0.10307550    -0.02140
C2231       C  0.72467831  0.30990805  0.10139109     0.02850
C2232       C  0.75060469  0.31595978  0.11973031    -0.05020
C2233       C  0.74809133  0.29214097  0.13985801    -0.02130
C2234       C  0.72026269  0.26308098  0.14124465     0.02840
C2235       C  0.67144335  0.27585146  0.08366972     0.37490
C2236       C  0.77370102  0.29636902  0.15902742     0.37480
C2237       C  0.71773986  0.23912496  0.16206848     0.35910
C2238       C  0.72555698  0.33356427  0.08125057     0.35910
N2239       N  0.71577125  0.22001750  0.17863652    -0.38910
N2240       N  0.72573983  0.35196352  0.06493428    -0.38910
N2241       N  0.79264651  0.29735360  0.17523988    -0.38360
N2242       N  0.65113656  0.27213910  0.06792987    -0.38360
C2243       C  0.66006890  0.14664887  0.28520339    -0.05030
C2244       C  0.66867263  0.17609690  0.27339485    -0.02140
C2245       C  0.65362599  0.17859978  0.24552813     0.02850
C2246       C  0.63025764  0.15165277  0.22893482    -0.05020
C2247       C  0.62272827  0.12234645  0.24023641    -0.02130
C2248       C  0.63686066  0.11985770  0.26846118     0.02840
C2249       C  0.69281942  0.20382142  0.29007053     0.37490
C2250       C  0.60093570  0.09401372  0.22258166     0.37480
C2251       C  0.62552503  0.08935533  0.28143904     0.35910
C2252       C  0.66128019  0.20884815  0.23497691     0.35910
N2253       N  0.61574368  0.06484901  0.29142640    -0.38910
N2254       N  0.66733777  0.23301256  0.22662829    -0.38910
N2255       N  0.58424083  0.07048970  0.20956224    -0.38360
N2256       N  0.71209448  0.22591763  0.30343984    -0.38360
C2257       C  0.66518765  0.15724041  0.46897481    -0.05030
C2258       C  0.64938003  0.13529343  0.99351717    -0.02140
C2259       C  0.63409429  0.14114228  0.01976813     0.02850
C2260       C  0.63689942  0.17043339  0.02537090    -0.05020
C2261       C  0.65331879  0.19282232  0.00082716    -0.02130
C2262       C  0.66648928  0.18589891  0.47256524     0.02840
C2263       C  0.64672787  0.10519367  0.99139018     0.37490
C2264       C  0.65575634  0.22266339  0.00320926     0.37480
C2265       C  0.68186163  0.20860392  0.44732940     0.35910
C2266       C  0.61297620  0.11493375  0.03847123     0.35910
N2267       N  0.69408814  0.22672613  0.42716388    -0.38910
N2268       N  0.59558452  0.09217449  0.05058718    -0.38910
N2269       N  0.65796214  0.24664446  0.00412874    -0.38360
N2270       N  0.64350805  0.08078456  0.49119772    -0.38360
C2271       C  0.68901056  0.03823571  0.47267435    -0.05030
C2272       C  0.69095064  0.05174603  0.00478234    -0.02140
C2273       C  0.68001993  0.03289668  0.03263186     0.02850
C2274       C  0.66782742  0.50070349  0.02859941    -0.05020
C2275       C  0.67123602  0.48863854  0.49755142    -0.02130
C2276       C  0.68398132  0.50813210  0.47043888     0.02840
C2277       C  0.70442487  0.08492043  0.00956820     0.37490
C2278       C  0.66170117  0.45628556  0.49318422     0.37480
C2279       C  0.69410893  0.49829605  0.44115178     0.35910
C2280       C  0.67966022  0.04662201  0.06478670     0.35910
N2281       N  0.70264068  0.49071233  0.41792028    -0.38910
N2282       N  0.67980469  0.05843878  0.09002489    -0.38910
N2283       N  0.65445496  0.43057379  0.48931070    -0.38360
N2284       N  0.71532193  0.11138158  0.01360855    -0.38360
C2285       C  0.67465894  0.03997198  0.27681500    -0.05030
C2286       C  0.65749674  0.00748784  0.28102031    -0.02140
C2287       C  0.64527093  0.48688442  0.25329495     0.02850
C2288       C  0.65072632  0.49859773  0.22133074    -0.05020
C2289       C  0.67393587  0.02989688  0.21710088    -0.02130
C2290       C  0.68452018  0.05101495  0.24473001     0.02840
C2291       C  0.65274831  0.49514969  0.31386509     0.37490
C2292       C  0.68644864  0.04055988  0.18449553     0.37480
C2293       C  0.70382654  0.08394388  0.23991533     0.35910
C2294       C  0.62791925  0.45370933  0.25753294     0.35910
N2295       N  0.71911583  0.11026093  0.23610649    -0.38910
N2296       N  0.61433717  0.42724521  0.26092066    -0.38910
N2297       N  0.69717324  0.04947511  0.15878568    -0.38360
N2298       N  0.64918559  0.48519826  0.33998154    -0.38360
C2299       C  0.60950099  0.03114247  0.12247543    -0.05030
C2300       C  0.62634506  0.05470056  0.14657750    -0.02140
C2301       C  0.62882744  0.08346880  0.14456184     0.02850
C2302       C  0.60569376  0.08544183  0.12815600    -0.05020
C2303       C  0.58232745  0.05840527  0.11143770    -0.02130
C2304       C  0.58616633  0.03267049  0.10548319     0.02840
C2305       C  0.62703274  0.04578357  0.17987098     0.37490
C2306       C  0.55503618  0.05708716  0.09944934     0.37480
C2307       C  0.56553540  0.00776930  0.08280089     0.35910
C2308       C  0.65261666  0.10945457  0.16391114     0.35910
N2309       N  0.54900676  0.48797560  0.06463562    -0.38910
N2310       N  0.67176946  0.13005789  0.17925707    -0.38910
N2311       N  0.53342751  0.05592353  0.08915507    -0.38360
N2312       N  0.62462981  0.03963944  0.20749565    -0.38360
C2313       C  0.59079585  0.33340529  0.12322370    -0.05030
C2314       C  0.59965337  0.32075681  0.09650053    -0.02140
C2315       C  0.58975672  0.28908011  0.09477749     0.02850
C2316       C  0.57367149  0.26973208  0.12147813    -0.05020
C2317       C  0.56774289  0.28301736  0.14996122    -0.02130
C2318       C  0.57620858  0.31463320  0.15094567     0.02840
C2319       C  0.62092063  0.34066414  0.07144955     0.37490
C2320       C  0.55361798  0.26425743  0.17863092     0.37480
C2321       C  0.57201189  0.32807960  0.18151971     0.35910
C2322       C  0.59616962  0.27713617  0.06444937     0.35910
N2323       N  0.56941653  0.33888151  0.20631351    -0.38910
N2324       N  0.60161041  0.27002578  0.03875175    -0.38910
N2325       N  0.54237520  0.24924499  0.20147446    -0.38360
N2326       N  0.63811422  0.35635441  0.05165286    -0.38360
C2327       C  0.69493773  0.42413736  0.10672594    -0.05030
C2328       C  0.71663788  0.43431785  0.08092884    -0.02140
C2329       C  0.74165880  0.42988009  0.08197215     0.02850
C2330       C  0.74741979  0.41811769  0.11066738    -0.05020
C2331       C  0.72575721  0.40797231  0.13666777    -0.02130
C2332       C  0.69930626  0.41034615  0.13439062     0.02840
C2333       C  0.71519591  0.45218516  0.05455124     0.37490
C2334       C  0.72993842  0.39381542  0.16501773     0.37480
C2335       C  0.67639031  0.39825840  0.16039820     0.35910
C2336       C  0.76129729  0.43774907  0.05292168     0.35910
N2337       N  0.65803089  0.38854899  0.18107374    -0.38910
N2338       N  0.77617405  0.44338213  0.02922457    -0.38910
N2339       N  0.73329813  0.38243556  0.18757377    -0.38360
N2340       N  0.71532404  0.46728898  0.03372056    -0.38360
C2341       C  0.99684595  0.42410528  0.14380433    -0.05030
C2342       C  0.98326348  0.42835998  0.17307134    -0.02140
C2343       C  0.95200085  0.41917168  0.17350643     0.02850
C2344       C  0.93406127  0.40728921  0.14413753    -0.05020
C2345       C  0.94621954  0.39855498  0.11711770    -0.02130
C2346       C  0.97795543  0.40983495  0.11548970     0.02840
C2347       C  0.00119996  0.44405104  0.20262303     0.37490
C2348       C  0.92584819  0.37387335  0.09419593     0.37480
C2349       C  0.99135718  0.40993274  0.08346411     0.35910
C2350       C  0.93843015  0.42157530  0.20473130     0.35910
N2351       N  0.00208695  0.41099660  0.05762609    -0.38910
N2352       N  0.92775815  0.42343034  0.22968462    -0.38910
N2353       N  0.90971141  0.35314557  0.07675384    -0.38360
N2354       N  0.51430653  0.45724266  0.22659560    -0.38360
C2355       C  0.00003032  0.15450740  0.46751243    -0.05030
C2356       C  0.51393231  0.18615092  0.47698641    -0.02140
C2357       C  0.53306535  0.19770631  0.00533503     0.02850
C2358       C  0.54483715  0.18028681  0.01844909    -0.05020
C2359       C  0.53328413  0.14967167  0.00552054    -0.02130
C2360       C  0.50761891  0.13588126  0.48481081     0.02840
C2361       C  0.50610344  0.20588437  0.46002216     0.37490
C2362       C  0.54487905  0.13067031  0.01672407     0.37480
C2363       C  0.98656101  0.10281485  0.48586335     0.35910
C2364       C  0.53467767  0.22358380  0.02394006     0.35910
N2365       N  0.96886470  0.07679324  0.48869108    -0.38910
N2366       N  0.53357467  0.24325705  0.03838150    -0.38910
N2367       N  0.55338721  0.11490998  0.02554492    -0.38360
N2368       N  0.00020385  0.22189928  0.44647782    -0.38360
C2369       C  0.52541572  0.17141583  0.22541756    -0.05030
C2370       C  0.49270642  0.15383890  0.22541582    -0.02140
C2371       C  0.97597818  0.14430832  0.25539496     0.02850
C2372       C  0.99107250  0.15237354  0.28648470    -0.05020
C2373       C  0.52313707  0.17357166  0.28700286    -0.02130
C2374       C  0.54026171  0.18240134  0.25679938     0.02840
C2375       C  0.97530171  0.14436418  0.19473421     0.37490
C2376       C  0.53876524  0.18555906  0.31857667     0.37480
C2377       C  0.57320508  0.20298792  0.25828773     0.35910
C2378       C  0.94264625  0.12625227  0.25401455     0.35910
N2379       N  0.59950886  0.21949181  0.25959691    -0.38910
N2380       N  0.91614879  0.11183253  0.25285433    -0.38910
N2381       N  0.55124629  0.19514604  0.34378546    -0.38360
N2382       N  0.96072605  0.13670318  0.17076018    -0.38360
C2383       C  0.88467780  0.03092384  0.48116572    -0.05030
C2384       C  0.86219951  0.03224364  0.50162587    -0.02140
C2385       C  0.84912534  0.01256176  0.02900126     0.02850
C2386       C  0.85969562  0.49281796  0.03745417    -0.05020
C2387       C  0.88528460  0.49542279  0.02028372    -0.02130
C2388       C  0.89548546  0.01149999  0.49077179     0.02840
C2389       C  0.85192083  0.05331809  0.49456569     0.37490
C2390       C  0.90252915  0.48288883  0.03395465     0.37480
C2391       C  0.91494440  0.00511510  0.46932886     0.35910
C2392       C  0.82515171  0.01300241  0.04847370     0.35910
N2393       N  0.92972397  0.99906436  0.45219247    -0.38910
N2394       N  0.80618221  0.01366148  0.06407655    -0.38910
N2395       N  0.91689841  0.47378393  0.04522206    -0.38360
N2396       N  0.84356556  0.07008649  0.48920666    -0.38360
C2397       C  0.84594934  0.48716952  0.22004354    -0.05030
C2398       C  0.87585753  0.00179738  0.23293539    -0.02140
C2399       C  0.88151056  0.01045239  0.26650946     0.02850
C2400       C  0.85918932  0.01178353  0.28642865    -0.05020
C2401       C  0.82884908  0.99737757  0.27408345    -0.02130
C2402       C  0.82206329  0.48402209  0.24122471     0.02840
C2403       C  0.90247411  0.01286260  0.21206635     0.37490
C2404       C  0.80489763  0.99653958  0.29471591     0.37480
C2405       C  0.79098583  0.46851887  0.22868335     0.35910
C2406       C  0.91184933  0.02077600  0.27945663     0.35910
N2407       N  0.76617507  0.45628144  0.21860237    -0.38910
N2408       N  0.93656308  0.02969896  0.28820371    -0.38910
N2409       N  0.78566975  0.99570509  0.31122543    -0.38360
N2410       N  0.92632771  0.02500058  0.19973504    -0.38360
C2411       C  0.52487334  0.09214616  0.39330998    -0.05030
C2412       C  0.53294395  0.07845343  0.41840949    -0.02140
C2413       C  0.56209877  0.08163215  0.41893886     0.02850
C2414       C  0.58359401  0.09700453  0.39334032    -0.05020
C2415       C  0.57582326  0.11122372  0.36889304    -0.02130
C2416       C  0.54625611  0.10713921  0.36774247     0.02840
C2417       C  0.51109944  0.05869521  0.44296660     0.37490
C2418       C  0.59874138  0.13317984  0.34682152     0.37480
C2419       C  0.53717558  0.11564988  0.33814254     0.35910
C2420       C  0.56887561  0.06740616  0.44555336     0.35910
N2421       N  0.52991976  0.12112568  0.31361123    -0.38910
N2422       N  0.57370221  0.05581387  0.46683225    -0.38910
N2423       N  0.61594287  0.15205731  0.32946162    -0.38360
N2424       N  0.49490359  0.04212844  0.46281539    -0.38360
C2425       C  0.82316513  0.08932610  0.36451993    -0.05030
C2426       C  0.81446985  0.09923496  0.39400228    -0.02140
C2427       C  0.78577229  0.09740366  0.39623644     0.02850
C2428       C  0.76523597  0.08566835  0.36911733    -0.05020
C2429       C  0.77453532  0.07713651  0.33920819    -0.02130
C2430       C  0.80342295  0.07954943  0.33670552     0.02840
C2431       C  0.83549565  0.11243420  0.42184947     0.37490
C2432       C  0.75484626  0.06614738  0.31028751     0.37480
C2433       C  0.81250725  0.07167746  0.30521740     0.35910
C2434       C  0.77692566  0.10666539  0.42695546     0.35910
N2435       N  0.81979131  0.06579143  0.27993154    -0.38910
N2436       N  0.76979201  0.11395927  0.45147118    -0.38910
N2437       N  0.74029210  0.05712416  0.28631634    -0.38360
N2438       N  0.85228120  0.12317744  0.44404542    -0.38360
C2439       C  0.52770419  0.36053697  0.03784326    -0.05030
C2440       C  0.99566754  0.34657529  0.03922293    -0.02140
C2441       C  0.97850980  0.33781291  0.00940370     0.02850
C2442       C  0.99319616  0.34114258  0.47805865    -0.05020
C2443       C  0.52388416  0.34828176  0.47790213    -0.02130
C2444       C  0.54127095  0.35886548  0.50750435     0.02840
C2445       C  0.98049080  0.34156993  0.07112522     0.37490
C2446       C  0.53744284  0.34379563  0.44793609     0.37480
C2447       C  0.57298439  0.36692799  0.50708584     0.35910
C2448       C  0.94562997  0.32476564  0.01127022     0.35910
N2449       N  0.59813646  0.37286607  0.50684437    -0.38910
N2450       N  0.91940415  0.31433504  0.01271097    -0.38910
N2451       N  0.54820145  0.33917713  0.42454621    -0.38360
N2452       N  0.96836336  0.33725199  0.09661124    -0.38360
C2453       C  0.99654072  0.36648167  0.28116169    -0.05030
C2454       C  0.99218119  0.34265785  0.25798034    -0.02140
C2455       C  0.50878020  0.34987757  0.22794303     0.02850
C2456       C  0.53107246  0.38096956  0.22118382    -0.05020
C2457       C  0.53695772  0.40445381  0.24567945    -0.02130
C2458       C  0.52029867  0.39717267  0.27550956     0.02840
C2459       C  0.97081405  0.31041543  0.26453578     0.37490
C2460       C  0.55854011  0.43690845  0.24026049     0.37480
C2461       C  0.52863483  0.42173530  0.30071732     0.35910
C2462       C  0.50218522  0.32490017  0.20397185     0.35910
N2463       N  0.53565935  0.44160557  0.32039296    -0.38910
N2464       N  0.49661661  0.30484334  0.18499303    -0.38910
N2465       N  0.57476053  0.46327428  0.23770083    -0.38360
N2466       N  0.95422794  0.28443584  0.26904938    -0.38360
C2467       C  0.91385069  0.49037505  0.36961798    -0.05030
C2468       C  0.89118861  0.46138361  0.38223108    -0.02140
C2469       C  0.89543174  0.43572205  0.38096601     0.02850
C2470       C  0.92172927  0.43781403  0.36570252    -0.05020
C2471       C  0.94419710  0.46658872  0.35275729    -0.02130
C2472       C  0.94086741  0.49262035  0.35571687     0.02840
C2473       C  0.86354853  0.45761044  0.39771494     0.37490
C2474       C  0.97187324  0.47038093  0.33705055     0.37480
C2475       C  0.96638171  0.02169919  0.34458219     0.35910
C2476       C  0.87217507  0.40712097  0.39544482     0.35910
N2477       N  0.98714609  0.04422078  0.33502683    -0.38910
N2478       N  0.85331659  0.38459137  0.40720102    -0.38910
N2479       N  0.99391810  0.47367527  0.32445270    -0.38360
N2480       N  0.84148816  0.45438128  0.41020368    -0.38360
C2481       C  0.92275206  0.23812616  0.38888832    -0.05030
C2482       C  0.92610004  0.22368446  0.41644178    -0.02140
C2483       C  0.92415183  0.19480900  0.41217539     0.02850
C2484       C  0.92041870  0.18072581  0.37992086    -0.05020
C2485       C  0.91367245  0.19371247  0.35316489    -0.02130
C2486       C  0.91458757  0.22191906  0.35783302     0.02840
C2487       C  0.93310603  0.23903354  0.44908944     0.37490
C2488       C  0.90609912  0.17877163  0.32024920     0.37480
C2489       C  0.90714959  0.23417769  0.33009389     0.35910
C2490       C  0.92590237  0.17991747  0.44137224     0.35910
N2491       N  0.90127772  0.24339743  0.30742128    -0.38910
N2492       N  0.92715773  0.16812086  0.46479320    -0.38910
N2493       N  0.90018215  0.16716335  0.29392721    -0.38360
N2494       N  0.93870400  0.25120882  0.47513070    -0.38360
C2495       C  0.58119263  0.49195827  0.40780134    -0.05030
C2496       C  0.58258763  0.46474592  0.40770087    -0.02140
C2497       C  0.55609691  0.43534701  0.40116597     0.02850
C2498       C  0.52662260  0.43190175  0.40042704    -0.05020
C2499       C  0.52541085  0.45936571  0.40459415    -0.02130
C2500       C  0.55241229  0.48862121  0.40284607     0.02840
C2501       C  0.61172548  0.46670130  0.41031934     0.37490
C2502       C  0.49697615  0.45877206  0.40984123     0.37480
C2503       C  0.55032433  0.01280781  0.38754891     0.35910
C2504       C  0.56032707  0.40974445  0.39203911     0.35790
N2505       N  0.54733601  0.03008339  0.37256935    -0.38910
N2506       N  0.56450131  0.39013337  0.38330609    -0.38910
N2507       N  0.97508836  0.45968768  0.41513990    -0.38360
N2508       N  0.63409176  0.46630285  0.41175317    -0.38360
C2509       C  0.83396006  0.24819578  0.37209951    -0.05030
C2510       C  0.82511659  0.23468649  0.33961111    -0.02140
C2511       C  0.79664524  0.20717006  0.33410046     0.02850
C2512       C  0.77439631  0.19531377  0.35975755    -0.05020
C2513       C  0.78220361  0.21090116  0.39134439    -0.02130
C2514       C  0.81234410  0.23517080  0.39813647     0.02840
C2515       C  0.84429013  0.24932339  0.31105936     0.37490
C2516       C  0.75955253  0.20334457  0.41729201     0.37480
C2517       C  0.82027874  0.24685417  0.43227727     0.35910
C2518       C  0.79058295  0.19176197  0.30147934     0.35910
N2519       N  0.82636816  0.25563980  0.45961960    -0.38910
N2520       N  0.78620411  0.17940735  0.27559601    -0.38910
N2521       N  0.74238182  0.19890186  0.43858926    -0.38360
N2522       N  0.85860855  0.26092276  0.28770386    -0.38360
C2523       C  0.87028463  0.35111282  0.46449758    -0.05030
C2524       C  0.83976835  0.33196787  0.47511482    -0.02140
C2525       C  0.83188279  0.33420445  0.50857390     0.02850
C2526       C  0.85432820  0.35619634  0.03096887    -0.05020
C2527       C  0.88410680  0.37694627  0.01925286    -0.02130
C2528       C  0.89183446  0.37479716  0.48636467     0.02840
C2529       C  0.81630122  0.31153145  0.45141055     0.37490
C2530       C  0.90655575  0.40259748  0.04028021     0.37480
C2531       C  0.92238095  0.39772819  0.47519867     0.35910
C2532       C  0.80031394  0.31559367  0.51934350     0.35910
N2533       N  0.94699658  0.41578491  0.96715638    -0.38910
N2534       N  0.77509842  0.30086982  0.52790486    -0.38910
N2535       N  0.92490020  0.42322997  0.05629399    -0.38360
N2536       N  0.79740132  0.29569606  0.43236985    -0.38360
C2537       C  0.86967818  0.34761006  0.28196487    -0.05030
C2538       C  0.87946962  0.34002153  0.25188174    -0.02140
C2539       C  0.86945031  0.34379836  0.22090165     0.02850
C2540       C  0.84913203  0.35507009  0.21935414    -0.05020
C2541       C  0.83761099  0.36052603  0.24943822    -0.02130
C2542       C  0.84805238  0.35728179  0.28035108     0.02840
C2543       C  0.89980637  0.32801240  0.25243739     0.37490
C2544       C  0.81484571  0.36961822  0.24891813     0.37480
C2545       C  0.83718968  0.36546629  0.31031723     0.35910
C2546       C  0.88135581  0.33713144  0.19074428     0.35910
N2547       N  0.82808113  0.37204490  0.33379669    -0.38910
N2548       N  0.89092134  0.33167944  0.16685573    -0.38910
N2549       N  0.79678536  0.37695499  0.24860529    -0.38360
N2550       N  0.91590011  0.31824629  0.25247486    -0.38360
O2551       O  0.94428798  0.41003700  0.84134449    -0.79820
O2552       O  0.95595749  0.34462540  0.94757730    -0.79850
O2553       O  0.86860643  0.33162208  0.90736245    -0.79860
O2554       O  0.00074219  0.37884112  0.87827743    -0.79800
O2555       O  0.90917036  0.34908226  0.93648425    -0.79920
O2556       O  0.97223688  0.39872078  0.89198654    -0.79840
O2557       O  0.98188973  0.32878562  0.91892254    -0.79820
O2558       O  0.91097321  0.38623076  0.88018511    -0.79860
C2559       C  0.92563746  0.41020123  0.86212140     1.09870
C2560       C  0.97655056  0.33820991  0.94645569     1.09750
C2561       C  0.88259217  0.34366555  0.93437255     1.09890
C2562       C  0.99828662  0.40123337  0.89070656     1.09770
O2563       O  0.97387237  0.38085694  0.82540197    -0.79830
O2564       O  0.87490506  0.28531487  0.90784179    -0.79900
O2565       O  0.86684038  0.34155078  0.84100285    -0.79840
O2566       O  0.94276745  0.28782596  0.86710382    -0.79820
O2567       O  0.92477838  0.28160539  0.91822733    -0.79870
O2568       O  0.91031864  0.35187615  0.81758150    -0.79840
O2569       O  0.96434512  0.33400083  0.82421379    -0.79790
O2570       O  0.87718517  0.29576299  0.85532541    -0.79860
Co2571     Co  0.94112033  0.37388718  0.85757429     1.51530
Co2572     Co  0.91694671  0.31659555  0.92564020     1.51690
Co2573     Co  0.89624077  0.33971398  0.86720304     1.51570
Co2574     Co  0.96998126  0.33269133  0.87212664     1.51470
O2575       O  0.93274246  0.33680445  0.88240682    -1.41760
C2576       C  0.97691561  0.35989100  0.81131412     1.09790
C2577       C  0.86411278  0.27736043  0.87845963     1.09880
C2578       C  0.88270553  0.34684919  0.81485356     1.09820
C2579       C  0.92992532  0.27076299  0.89147228     1.09790
O2580       O  0.95114523  0.10902591  0.81448797    -0.79820
O2581       O  0.93374741  0.04489716  0.86748748    -0.79850
O2582       O  0.48748735  0.10675096  0.87579373    -0.79860
O2583       O  0.85589088  0.03200126  0.84144280    -0.79800
O2584       O  0.97555045  0.07512324  0.91611496    -0.79920
O2585       O  0.89673253  0.05840994  0.81104881    -0.79840
O2586       O  0.88678048  0.01728726  0.88560681    -0.79820
O2587       O  0.97647046  0.14998564  0.84532872    -0.79860
C2588       C  0.97272233  0.13666089  0.81710441     1.09870
C2589       C  0.91086669  0.01872257  0.87350358     1.09750
C2590       C  0.49489274  0.09146785  0.89499443     1.09890
C2591       C  0.87081697  0.03477869  0.81494821     1.09770
O2592       O  0.86653719  0.09000953  0.83756157    -0.79830
O2593       O  0.95702246  0.11411234  0.93618832    -0.79900
O2594       O  0.93445980  0.14460239  0.89679377    -0.79840
O2595       O  0.88240808  0.05943873  0.93559254    -0.79820
O2596       O  0.91908404  0.05024847  0.93468558    -0.79870
O2597       O  0.92249730  0.14234293  0.84450868    -0.79840
O2598       O  0.85675237  0.07657401  0.88969420    -0.79790
O2599       O  0.99154078  0.15570602  0.91028341    -0.79860
Co2600     Co  0.90988472  0.09914339  0.82922883     1.51530
Co2601     Co  0.94402249  0.07923335  0.89927408     1.51690
Co2602     Co  0.95767848  0.12408546  0.88618824     1.51570
Co2603     Co  0.87354112  0.04926683  0.88755723     1.51470
O2604       O  0.91571404  0.08640909  0.87375493    -1.41760
C2605       C  0.85085998  0.08598565  0.86401097     1.09790
C2606       C  0.98162780  0.14137962  0.93692477     1.09880
C2607       C  0.92524860  0.15398968  0.87372649     1.09820
C2608       C  0.89629394  0.04845474  0.94954675     1.09790
O2609       O  0.53771522  0.41577477  0.62438018    -0.79820
O2610       O  0.66566670  0.48476490  0.58403732    -0.79850
O2611       O  0.58888995  0.47702966  0.61458103    -0.79860
O2612       O  0.56951051  0.40663563  0.56064384    -0.79800
O2613       O  0.63714626  0.50435240  0.62986004    -0.79920
O2614       O  0.54512941  0.36989661  0.59516353    -0.79840
O2615       O  0.62553250  0.45663341  0.55179785    -0.79820
O2616       O  0.54861698  0.45020521  0.66485152    -0.79860
C2617       C  0.52915436  0.43069699  0.64425767     1.09870
C2618       C  0.65203981  0.47979255  0.55647894     1.09750
C2619       C  0.61245597  0.50299184  0.62064668     1.09890
C2620       C  0.54776126  0.37981296  0.56621314     1.09770
O2621       O  0.58925748  0.37819762  0.64388173    -0.79830
O2622       O  0.64204082  0.46285205  0.67725973    -0.79900
O2623       O  0.57141833  0.41542140  0.68423725    -0.79840
O2624       O  0.65388468  0.42544187  0.57970493    -0.79820
O2625       O  0.66537599  0.44325474  0.63139518    -0.79870
O2626       O  0.53418365  0.37188944  0.66242626    -0.79840
O2627       O  0.59715002  0.37491413  0.59049754    -0.79790
O2628       O  0.60989687  0.47824874  0.68084592    -0.79860
Co2629     Co  0.56680999  0.39926591  0.63456157     1.51530
Co2630     Co  0.64973564  0.47136854  0.63015231     1.51690
Co2631     Co  0.58101582  0.44589217  0.64659246     1.51570
Co2632     Co  0.61092114  0.41714833  0.57321660     1.51470
O2633       O  0.60714111  0.43502695  0.61784887    -1.41760
C2634       C  0.59369404  0.36437591  0.61954952     1.09790
C2635       C  0.63281866  0.47833015  0.69253747     1.09880
C2636       C  0.54621429  0.38938052  0.68797193     1.09820
C2637       C  0.66946984  0.43053532  0.60602991     1.09790
O2638       O  0.67517207  0.15907772  0.84233991    -0.79820
O2639       O  0.62161157  0.02919792  0.87630277    -0.79850
O2640       O  0.70455110  0.08532275  0.81374228    -0.79860
O2641       O  0.62400097  0.09427213  0.91932299    -0.79800
O2642       O  0.65767959  0.05271735  0.82574115    -0.79920
O2643       O  0.62909959  0.10359339  0.86577492    -0.79840
O2644       O  0.62430092  0.04050270  0.92950009    -0.79820
O2645       O  0.67910917  0.12137328  0.81803847    -0.79860
C2646       C  0.67315049  0.14321647  0.81628134     1.09870
C2647       C  0.61001060  0.02264412  0.90457853     1.09750
C2648       C  0.67938144  0.06104123  0.80597774     1.09890
C2649       C  0.61357873  0.09784864  0.89241009     1.09770
O2650       O  0.66883309  0.15050820  0.90961040    -0.79830
O2651       O  0.71028286  0.05937830  0.86321829    -0.79900
O2652       O  0.74000715  0.14782540  0.82991036    -0.79840
O2653       O  0.68997188  0.07920685  0.94485397    -0.79820
O2654       O  0.67161244  0.03529906  0.91666333    -0.79870
O2655       O  0.72148883  0.15866668  0.87476890    -0.79840
O2656       O  0.68770241  0.13098382  0.94027357    -0.79790
O2657       O  0.73485756  0.10893748  0.87724266    -0.79860
Co2658     Co  0.67441435  0.12840255  0.86923727     1.51530
Co2659     Co  0.66557616  0.04670512  0.87084623     1.51690
Co2660     Co  0.70606786  0.11485138  0.85081835     1.51570
Co2661     Co  0.65789820  0.08673476  0.93105000     1.51470
O2662       O  0.67293519  0.08942931  0.88375184    -1.41760
C2663       C  0.67657397  0.14799651  0.93828498     1.09790
C2664       C  0.73516169  0.08436967  0.87101255     1.09880
C2665       C  0.74381176  0.16644182  0.85397649     1.09820
C2666       C  0.68490693  0.05211244  0.94253652     1.09790
O2667       O  0.53304951  0.11868718  0.66455863    -0.79820
O2668       O  0.63112735  0.20478501  0.56594512    -0.79850
O2669       O  0.54528301  0.16529458  0.57104948    -0.79860
O2670       O  0.63219643  0.14024016  0.62643071    -0.79800
O2671       O  0.58171979  0.21266451  0.56204122    -0.79920
O2672       O  0.58243024  0.11742512  0.63533029    -0.79840
O2673       O  0.60811646  0.15599788  0.57711207    -0.79820
O2674       O  0.52531371  0.12486165  0.61401204    -0.79860
C2675       C  0.51658752  0.10854703  0.63881971     1.09870
C2676       C  0.62406924  0.17733030  0.55723097     1.09750
C2677       C  0.55870493  0.18709120  0.55200856     1.09890
C2678       C  0.60664706  0.11553715  0.62988174     1.09770
O2679       O  0.58381132  0.13417581  0.69976084    -0.79830
O2680       O  0.59615778  0.24057223  0.62995869    -0.79900
O2681       O  0.52925928  0.16987486  0.66555855    -0.79840
O2682       O  0.65719390  0.20207373  0.61862837    -0.79820
O2683       O  0.64206919  0.23288610  0.63484917    -0.79870
O2684       O  0.56974403  0.17869090  0.69333681    -0.79840
O2685       O  0.62519111  0.17237501  0.67696466    -0.79790
O2686       O  0.54823256  0.21346916  0.61483335    -0.79860
Co2687     Co  0.57794686  0.15175023  0.66253850     1.51530
Co2688     Co  0.61125284  0.22034567  0.60014812     1.51690
Co2689     Co  0.54005690  0.16916420  0.61724074     1.51570
Co2690     Co  0.61425696  0.16470369  0.62580634     1.51470
O2691       O  0.58420800  0.17984975  0.62437980    -1.41760
C2692       C  0.61243092  0.15300099  0.70075559     1.09790
C2693       C  0.57186180  0.23938276  0.62308479     1.09880
C2694       C  0.54308678  0.17498725  0.69317963     1.09820
C2695       C  0.66376442  0.22918176  0.62733301     1.09790
O2696       O  0.89796605  0.42064238  0.66383582    -0.79820
O2697       O  0.84410421  0.44281789  0.55515200    -0.79850
O2698       O  0.83560736  0.35340488  0.58760103    -0.79860
O2699       O  0.88022306  0.48209817  0.61653367    -0.79800
O2700       O  0.84785544  0.39306102  0.55733435    -0.79920
O2701       O  0.89890248  0.47244701  0.65814455    -0.79840
O2702       O  0.83189147  0.46999005  0.58859163    -0.79820
O2703       O  0.88584103  0.39443876  0.61816736    -0.79860
C2704       C  0.90457963  0.40720056  0.64151365     1.09870
C2705       C  0.84365709  0.46728513  0.56148486     1.09750
C2706       C  0.84492811  0.36721249  0.56032876     1.09890
C2707       C  0.90264243  0.48939369  0.63438689     1.09770
O2708       O  0.83548049  0.44359745  0.68469429    -0.79830
O2709       O  0.78807863  0.35807491  0.58752618    -0.79900
O2710       O  0.84427973  0.35204154  0.65936082    -0.79840
O2711       O  0.79283715  0.42519846  0.63800792    -0.79820
O2712       O  0.78555282  0.41083146  0.58569023    -0.79870
O2713       O  0.83718549  0.38679733  0.68654814    -0.79840
O2714       O  0.83895860  0.48353530  0.66029895    -0.79790
O2715       O  0.79799456  0.35958044  0.63998745    -0.79860
Co2716     Co  0.86471125  0.42972870  0.66776504     1.51530
Co2717     Co  0.81822950  0.40215745  0.57457087     1.51690
Co2718     Co  0.84235890  0.37957587  0.62995916     1.51570
Co2719     Co  0.83793627  0.45230123  0.62984246     1.51470
O2720       O  0.84507541  0.41810482  0.61671860    -1.41760
C2721       C  0.83988308  0.47112474  0.68683650     1.09790
C2722       C  0.78011996  0.34626504  0.61589016     1.09880
C2723       C  0.84299617  0.36464649  0.68700226     1.09820
C2724       C  0.77612190  0.41687217  0.61232964     1.09790
C2725       C  0.98736732  0.07800665  0.63661018    -0.05030
C2726       C  0.98612562  0.05112702  0.64674787    -0.02140
C2727       C  0.96001069  0.02187444  0.64004121     0.02850
C2728       C  0.93244900  0.01907137  0.62965094    -0.05020
C2729       C  0.93337468  0.04608029  0.61952554    -0.02130
C2730       C  0.96121712  0.07498304  0.62095814     0.02840
C2731       C  0.51190641  0.05301195  0.66318263     0.37490
C2732       C  0.90574220  0.04485344  0.60900989     0.37480
C2733       C  0.96254408  0.10159010  0.60678012     0.35910
C2734       C  0.96283835  0.99501854  0.64068138     0.35910
N2735       N  0.96364519  0.12265984  0.59504113    -0.38910
N2736       N  0.96723746  0.47481189  0.63960626    -0.38910
N2737       N  0.88384572  0.04436375  0.60096256    -0.38360
N2738       N  0.53200850  0.05363138  0.67652461    -0.38360
C2739       C  0.69460442  0.25751023  0.62306011    -0.05030
C2740       C  0.69721466  0.28110063  0.60307540    -0.02140
C2741       C  0.72467833  0.30990804  0.60139102     0.02850
C2742       C  0.75060469  0.31595979  0.61973029    -0.05020
C2743       C  0.74809132  0.29214099  0.63985801    -0.02130
C2744       C  0.72026269  0.26308099  0.64124463     0.02840
C2745       C  0.67144341  0.27585140  0.58366954     0.37490
C2746       C  0.77370100  0.29636906  0.65902746     0.37480
C2747       C  0.71773985  0.23912499  0.66206849     0.35910
C2748       C  0.72555700  0.33356426  0.58125050     0.35910
N2749       N  0.71577123  0.22001753  0.67863655    -0.38910
N2750       N  0.72573984  0.35196350  0.56493421    -0.38910
N2751       N  0.79264647  0.29735364  0.67523997    -0.38360
N2752       N  0.65113665  0.27213902  0.56792962    -0.38360
C2753       C  0.66006886  0.14664887  0.78520338    -0.05030
C2754       C  0.66867260  0.17609690  0.77339484    -0.02140
C2755       C  0.65362598  0.17859978  0.74552811     0.02850
C2756       C  0.63025763  0.15165278  0.72893480    -0.05020
C2757       C  0.62272824  0.12234646  0.74023640    -0.02130
C2758       C  0.63686062  0.11985770  0.76846118     0.02840
C2759       C  0.69281940  0.20382142  0.79007052     0.37490
C2760       C  0.60093568  0.09401372  0.72258164     0.37480
C2761       C  0.62552497  0.08935533  0.78143905     0.35910
C2762       C  0.66128018  0.20884815  0.73497689     0.35910
N2763       N  0.61574362  0.06484901  0.79142643    -0.38910
N2764       N  0.66733776  0.23301257  0.72662827    -0.38910
N2765       N  0.58424081  0.07048970  0.70956222    -0.38360
N2766       N  0.71209446  0.22591763  0.80343982    -0.38360
C2767       C  0.66518768  0.15724045  0.96897483    -0.05030
C2768       C  0.64938002  0.13529341  0.49351718    -0.02140
C2769       C  0.63409430  0.14114227  0.51976815     0.02850
C2770       C  0.63689937  0.17043336  0.52537086    -0.05020
C2771       C  0.65331868  0.19282225  0.50082707    -0.02130
C2772       C  0.66648934  0.18589896  0.97256529     0.02840
C2773       C  0.64672787  0.10519365  0.49139019     0.37490
C2774       C  0.65575604  0.22266324  0.50320903     0.37480
C2775       C  0.68186164  0.20860397  0.94732944     0.35910
C2776       C  0.61297629  0.11493377  0.53847131     0.35910
N2777       N  0.69408809  0.22672620  0.92716392    -0.38910
N2778       N  0.59558466  0.09217451  0.55058732    -0.38910
N2779       N  0.65796166  0.24664423  0.50412839    -0.38360
N2780       N  0.64350805  0.08078458  0.99119771    -0.38360
C2781       C  0.68901056  0.03823573  0.97267436    -0.05030
C2782       C  0.69095065  0.05174602  0.50478233    -0.02140
C2783       C  0.68001992  0.03289668  0.53263185     0.02850
C2784       C  0.66782742  0.50070352  0.52859943    -0.05020
C2785       C  0.67123601  0.48863851  0.99755140    -0.02130
C2786       C  0.68398131  0.50813206  0.97043886     0.02840
C2787       C  0.70442490  0.08492043  0.50956819     0.37490
C2788       C  0.66170116  0.45628553  0.99318420     0.37480
C2789       C  0.69410890  0.49829601  0.94115175     0.35910
C2790       C  0.67966021  0.04662201  0.56478669     0.35910
N2791       N  0.70264063  0.49071228  0.91792024    -0.38910
N2792       N  0.67980467  0.05843878  0.59002488    -0.38910
N2793       N  0.65445495  0.43057376  0.98931069    -0.38360
N2794       N  0.71532197  0.11138158  0.51360853    -0.38360
C2795       C  0.67465890  0.03997195  0.77681500    -0.05030
C2796       C  0.65749669  0.00748780  0.78102031    -0.02140
C2797       C  0.64527092  0.48688442  0.75329497     0.02850
C2798       C  0.65072632  0.49859773  0.72133076    -0.05020
C2799       C  0.67393585  0.02989684  0.71710088    -0.02130
C2800       C  0.68452016  0.05101491  0.74473001     0.02840
C2801       C  0.65274830  0.49514968  0.81386511     0.37490
C2802       C  0.68644863  0.04055984  0.68449553     0.37480
C2803       C  0.70382653  0.08394384  0.73991532     0.35910
C2804       C  0.62791923  0.45370933  0.75753295     0.35910
N2805       N  0.71911584  0.11026088  0.73610648    -0.38910
N2806       N  0.61433715  0.42724521  0.76092068    -0.38910
N2807       N  0.69717323  0.04947507  0.65878568    -0.38360
N2808       N  0.64918557  0.48519826  0.83998156    -0.38360
C2809       C  0.60950095  0.03114246  0.62247546    -0.05030
C2810       C  0.62634504  0.05470056  0.64657752    -0.02140
C2811       C  0.62882741  0.08346879  0.64456185     0.02850
C2812       C  0.60569373  0.08544182  0.62815601    -0.05020
C2813       C  0.58232741  0.05840525  0.61143773    -0.02130
C2814       C  0.58616628  0.03267047  0.60548323     0.02840
C2815       C  0.62703274  0.04578358  0.67987099     0.37490
C2816       C  0.55503614  0.05708716  0.59944935     0.37480
C2817       C  0.56553534  0.00776928  0.58280094     0.35910
C2818       C  0.65261664  0.10945457  0.66391114     0.35910
N2819       N  0.54900679  0.48797563  0.56463560    -0.38910
N2820       N  0.67176944  0.13005789  0.67925706    -0.38910
N2821       N  0.53342749  0.05592354  0.58915506    -0.38360
N2822       N  0.62462983  0.03963945  0.70749567    -0.38360
C2823       C  0.59079588  0.33340531  0.62322372    -0.05030
C2824       C  0.59965342  0.32075685  0.59650057    -0.02140
C2825       C  0.58975678  0.28908015  0.59477751     0.02850
C2826       C  0.57367152  0.26973211  0.62147814    -0.05020
C2827       C  0.56774290  0.28301737  0.64996122    -0.02130
C2828       C  0.57620858  0.31463321  0.65094569     0.02840
C2829       C  0.62092070  0.34066420  0.57144961     0.37490
C2830       C  0.55361797  0.26425742  0.67863091     0.37480
C2831       C  0.57201187  0.32807960  0.68151972     0.35910
C2832       C  0.59616970  0.27713623  0.56444940     0.35910
N2833       N  0.56941650  0.33888149  0.70631353    -0.38910
N2834       N  0.60161049  0.27002584  0.53875178    -0.38910
N2835       N  0.54237518  0.24924497  0.70147444    -0.38360
N2836       N  0.63811430  0.35635447  0.55165294    -0.38360
C2837       C  0.69493774  0.42413737  0.60672596    -0.05030
C2838       C  0.71663788  0.43431787  0.58092885    -0.02140
C2839       C  0.74165881  0.42988010  0.58197215     0.02850
C2840       C  0.74741979  0.41811769  0.61066738    -0.05020
C2841       C  0.72575722  0.40797231  0.63666778    -0.02130
C2842       C  0.69930626  0.41034616  0.63439063     0.02840
C2843       C  0.71519592  0.45218518  0.55455126     0.37490
C2844       C  0.72993843  0.39381542  0.66501773     0.37480
C2845       C  0.67639032  0.39825842  0.66039822     0.35910
C2846       C  0.76129729  0.43774909  0.55292168     0.35910
N2847       N  0.65803090  0.38854900  0.68107377    -0.38910
N2848       N  0.77617405  0.44338214  0.52922457    -0.38910
N2849       N  0.73329814  0.38243557  0.68757377    -0.38360
N2850       N  0.71532404  0.46728900  0.53372059    -0.38360
C2851       C  0.99684595  0.42410527  0.64380433    -0.05030
C2852       C  0.98326347  0.42835997  0.67307134    -0.02140
C2853       C  0.95200085  0.41917167  0.67350643     0.02850
C2854       C  0.93406127  0.40728921  0.64413753    -0.05020
C2855       C  0.94621954  0.39855498  0.61711769    -0.02130
C2856       C  0.97795543  0.40983495  0.61548969     0.02840
C2857       C  0.00119995  0.44405103  0.70262303     0.37490
C2858       C  0.92584819  0.37387335  0.59419592     0.37480
C2859       C  0.99135719  0.40993275  0.58346410     0.35910
C2860       C  0.93843014  0.42157529  0.70473130     0.35910
N2861       N  0.00208696  0.41099660  0.55762609    -0.38910
N2862       N  0.92775813  0.42343032  0.72968462    -0.38910
N2863       N  0.90971141  0.35314558  0.57675382    -0.38360
N2864       N  0.51430651  0.45724265  0.72659561    -0.38360
C2865       C  0.00003031  0.15450738  0.96751244    -0.05030
C2866       C  0.51393230  0.18615090  0.97698642    -0.02140
C2867       C  0.53306538  0.19770634  0.50533501     0.02850
C2868       C  0.54483718  0.18028685  0.51844907    -0.05020
C2869       C  0.53328418  0.14967171  0.50552050    -0.02130
C2870       C  0.50761888  0.13588123  0.98481083     0.02840
C2871       C  0.50610343  0.20588435  0.96002216     0.37490
C2872       C  0.54487912  0.13067037  0.51672400     0.37480
C2873       C  0.98656098  0.10281482  0.98586335     0.35910
C2874       C  0.53467773  0.22358385  0.52394002     0.35910
N2875       N  0.96886467  0.07679321  0.98869107    -0.38910
N2876       N  0.53357476  0.24325712  0.53838146    -0.38910
N2877       N  0.55338732  0.11491005  0.52554481    -0.38360
N2878       N  0.00020384  0.22189926  0.94647784    -0.38360
C2879       C  0.52541572  0.17141582  0.72541754    -0.05030
C2880       C  0.49270642  0.15383888  0.72541580    -0.02140
C2881       C  0.97597818  0.14430829  0.75539494     0.02850
C2882       C  0.99107250  0.15237352  0.78648469    -0.05020
C2883       C  0.52313707  0.17357165  0.78700285    -0.02130
C2884       C  0.54026172  0.18240134  0.75679936     0.02840
C2885       C  0.97530171  0.14436416  0.69473420     0.37490
C2886       C  0.53876524  0.18555905  0.81857665     0.37480
C2887       C  0.57320508  0.20298792  0.75828772     0.35910
C2888       C  0.94264625  0.12625222  0.75401453     0.35910
N2889       N  0.59950886  0.21949182  0.75959689    -0.38910
N2890       N  0.91614879  0.11183247  0.75285431    -0.38910
N2891       N  0.55124629  0.19514603  0.84378544    -0.38360
N2892       N  0.96072606  0.13670315  0.67076016    -0.38360
C2893       C  0.88467781  0.03092383  0.98116572    -0.05030
C2894       C  0.86219953  0.03224363  0.00162588    -0.02140
C2895       C  0.84912532  0.01256177  0.52900125     0.02850
C2896       C  0.85969563  0.49281798  0.53745418    -0.05020
C2897       C  0.88528461  0.49542281  0.52028374    -0.02130
C2898       C  0.89548547  0.01149998  0.99077179     0.02840
C2899       C  0.85192085  0.05331809  0.99456569     0.37490
C2900       C  0.90252917  0.48288886  0.53395468     0.37480
C2901       C  0.91494441  0.00511509  0.96932886     0.35910
C2902       C  0.82515168  0.01300240  0.54847368     0.35910
N2903       N  0.92972398  0.99906435  0.95219247    -0.38910
N2904       N  0.80618218  0.01366146  0.56407653    -0.38910
N2905       N  0.91689843  0.47378398  0.54522210    -0.38360
N2906       N  0.84356559  0.07008649  0.98920667    -0.38360
C2907       C  0.84594935  0.48716951  0.72004355    -0.05030
C2908       C  0.87585751  0.00179749  0.73293530    -0.02140
C2909       C  0.88151055  0.01045242  0.76650939     0.02850
C2910       C  0.85918932  0.01178351  0.78642864    -0.05020
C2911       C  0.82884906  0.99737752  0.77408349    -0.02130
C2912       C  0.82206330  0.48402212  0.74122469     0.02840
C2913       C  0.90247407  0.01286295  0.71206619     0.37490
C2914       C  0.80489763  0.99653950  0.79471599     0.37480
C2915       C  0.79098584  0.46851893  0.72868330     0.35910
C2916       C  0.91184934  0.02077599  0.77945651     0.35910
N2917       N  0.76617509  0.45628151  0.71860230    -0.38910
N2918       N  0.93656309  0.02969891  0.78820356    -0.38910
N2919       N  0.78566975  0.99570498  0.81122554    -0.38360
N2920       N  0.92632762  0.02500113  0.69973479    -0.38360
C2921       C  0.52487336  0.09214617  0.89331000    -0.05030
C2922       C  0.53294398  0.07845346  0.91840952    -0.02140
C2923       C  0.56209881  0.08163220  0.91893889     0.02850
C2924       C  0.58359405  0.09700458  0.89334036    -0.05020
C2925       C  0.57582330  0.11122377  0.86889309    -0.02130
C2926       C  0.54625613  0.10713924  0.86774249     0.02840
C2927       C  0.51109948  0.05869525  0.94296663     0.37490
C2928       C  0.59874143  0.13317992  0.84682159     0.37480
C2929       C  0.53717561  0.11564990  0.83814255     0.35910
C2930       C  0.56887565  0.06740620  0.94555340     0.35910
N2931       N  0.52991979  0.12112569  0.81361124    -0.38910
N2932       N  0.57370225  0.05581391  0.96683228    -0.38910
N2933       N  0.61594293  0.15205741  0.82946172    -0.38360
N2934       N  0.49490362  0.04212848  0.96281542    -0.38360
C2935       C  0.82316512  0.08932606  0.86451990    -0.05030
C2936       C  0.81446984  0.09923492  0.89400224    -0.02140
C2937       C  0.78577228  0.09740363  0.89623640     0.02850
C2938       C  0.76523597  0.08566833  0.86911729    -0.05020
C2939       C  0.77453531  0.07713648  0.83920815    -0.02130
C2940       C  0.80342294  0.07954938  0.83670550     0.02840
C2941       C  0.83549564  0.11243416  0.92184944     0.37490
C2942       C  0.75484624  0.06614733  0.81028748     0.37480
C2943       C  0.81250722  0.07167738  0.80521739     0.35910
C2944       C  0.77692565  0.10666536  0.92695542     0.35910
N2945       N  0.81979128  0.06579133  0.77993153    -0.38910
N2946       N  0.76979199  0.11395924  0.95147114    -0.38910
N2947       N  0.74029207  0.05712409  0.78631632    -0.38360
N2948       N  0.85228118  0.12317740  0.94404540    -0.38360
C2949       C  0.52770422  0.36053699  0.53784328    -0.05030
C2950       C  0.99566755  0.34657530  0.53922293    -0.02140
C2951       C  0.97850983  0.33781293  0.50940369     0.02850
C2952       C  0.99319611  0.34114255  0.97805866    -0.05020
C2953       C  0.52388410  0.34828172  0.97790212    -0.02130
C2954       C  0.54127091  0.35886547  0.00750432     0.02840
C2955       C  0.98049079  0.34156994  0.57112521     0.37490
C2956       C  0.53744276  0.34379557  0.94793607     0.37480
C2957       C  0.57298436  0.36692799  0.00708578     0.35910
C2958       C  0.94563001  0.32476569  0.51127018     0.35910
N2959       N  0.59813642  0.37286607  0.00684430    -0.38910
N2960       N  0.91940419  0.31433511  0.51271091    -0.38910
N2961       N  0.54820136  0.33917706  0.92454619    -0.38360
N2962       N  0.96836335  0.33725199  0.59661122    -0.38360
C2963       C  0.99654070  0.36648167  0.78116170    -0.05030
C2964       C  0.99218118  0.34265786  0.75798034    -0.02140
C2965       C  0.50878019  0.34987758  0.72794304     0.02850
C2966       C  0.53107246  0.38096957  0.72118383    -0.05020
C2967       C  0.53695771  0.40445382  0.74567947    -0.02130
C2968       C  0.52029864  0.39717267  0.77550958     0.02840
C2969       C  0.97081405  0.31041543  0.76453578     0.37490
C2970       C  0.55854010  0.43690846  0.74026052     0.37480
C2971       C  0.52863479  0.42173529  0.80071733     0.35910
C2972       C  0.50218521  0.32490019  0.70397184     0.35910
N2973       N  0.53565931  0.44160555  0.82039298    -0.38910
N2974       N  0.49661660  0.30484335  0.68499302    -0.38910
N2975       N  0.57476052  0.46327429  0.73770086    -0.38360
N2976       N  0.95422795  0.28443584  0.76904936    -0.38360
C2977       C  0.91385067  0.49037505  0.86961800    -0.05030
C2978       C  0.89118858  0.46138360  0.88223109    -0.02140
C2979       C  0.89543170  0.43572204  0.88096602     0.02850
C2980       C  0.92172924  0.43781402  0.86570254    -0.05020
C2981       C  0.94419708  0.46658871  0.85275733    -0.02130
C2982       C  0.94086740  0.49262035  0.85571691     0.02840
C2983       C  0.86354849  0.45761043  0.89771493     0.37490
C2984       C  0.97187323  0.47038092  0.83705060     0.37480
C2985       C  0.96638170  0.02169919  0.84458214     0.35910
C2986       C  0.87217503  0.40712095  0.89544482     0.35910
N2987       N  0.98714608  0.04422079  0.83502678    -0.38910
N2988       N  0.85331654  0.38459135  0.90720099    -0.38910
N2989       N  0.99391808  0.47367526  0.82445276    -0.38360
N2990       N  0.84148812  0.45438128  0.91020366    -0.38360
C2991       C  0.92275206  0.23812613  0.88888828    -0.05030
C2992       C  0.92610001  0.22368442  0.91644175    -0.02140
C2993       C  0.92415181  0.19480896  0.91217536     0.02850
C2994       C  0.92041869  0.18072577  0.87992083    -0.05020
C2995       C  0.91367246  0.19371244  0.85316485    -0.02130
C2996       C  0.91458760  0.22191904  0.85783297     0.02840
C2997       C  0.93310597  0.23903349  0.94908941     0.37490
C2998       C  0.90609912  0.17877158  0.82024917     0.37480
C2999       C  0.90714967  0.23417769  0.83009382     0.35910
C3000       C  0.92590234  0.17991743  0.94137222     0.35910
N3001       N  0.90127785  0.24339742  0.80742117    -0.38910
N3002       N  0.92715769  0.16812083  0.96479318    -0.38910
N3003       N  0.90018214  0.16716329  0.79392719    -0.38360
N3004       N  0.93870392  0.25120876  0.97513068    -0.38360
C3005       C  0.58119257  0.49195821  0.90780134    -0.05030
C3006       C  0.58258758  0.46474586  0.90770087    -0.02140
C3007       C  0.55609685  0.43534695  0.90116598     0.02850
C3008       C  0.52662254  0.43190169  0.90042706    -0.05020
C3009       C  0.52541079  0.45936565  0.90459418    -0.02130
C3010       C  0.55241223  0.48862115  0.90284609     0.02840
C3011       C  0.61172543  0.46670124  0.91031934     0.37490
C3012       C  0.49697609  0.45877200  0.90984129     0.37480
C3013       C  0.55032432  0.01280785  0.88754894     0.35910
C3014       C  0.56032701  0.40974439  0.89203910     0.35790
N3015       N  0.54733600  0.03008343  0.87256940    -0.38910
N3016       N  0.56450125  0.39013331  0.88330607    -0.38910
N3017       N  0.97508832  0.45968765  0.91513995    -0.38360
N3018       N  0.63409170  0.46630278  0.91175317    -0.38360
C3019       C  0.83396004  0.24819578  0.87209935    -0.05030
C3020       C  0.82511666  0.23468639  0.83961099    -0.02140
C3021       C  0.79664535  0.20716991  0.83410036     0.02850
C3022       C  0.77439630  0.19531380  0.85975736    -0.05020
C3023       C  0.78220349  0.21090139  0.89134409    -0.02130
C3024       C  0.81234399  0.23517094  0.89813625     0.02840
C3025       C  0.84429024  0.24932325  0.81105925     0.37490
C3026       C  0.75955227  0.20334518  0.91729148     0.37480
C3027       C  0.82027855  0.24685436  0.93227704     0.35910
C3028       C  0.79058323  0.19176160  0.80147938     0.35910
N3029       N  0.82636790  0.25564000  0.95961937    -0.38910
N3030       N  0.78620453  0.17940680  0.77559616    -0.38910
N3031       N  0.74238145  0.19890279  0.93858851    -0.38360
N3032       N  0.85860867  0.26092259  0.78770375    -0.38360
C3033       C  0.87028456  0.35111280  0.96449753    -0.05030
C3034       C  0.83976827  0.33196791  0.97511475    -0.02140
C3035       C  0.83188273  0.33420448  0.00857385     0.02850
C3036       C  0.85432824  0.35619636  0.53096891    -0.05020
C3037       C  0.88410684  0.37694631  0.51925289    -0.02130
C3038       C  0.89183442  0.37479711  0.98636463     0.02840
C3039       C  0.81630112  0.31153160  0.95141045     0.37490
C3040       C  0.90655578  0.40259753  0.54028025     0.37480
C3041       C  0.92238092  0.39772810  0.97519864     0.35910
C3042       C  0.80031387  0.31559374  0.01934344     0.35910
N3043       N  0.94699659  0.41578502  0.46715640    -0.38910
N3044       N  0.77509835  0.30086993  0.02790479    -0.38910
N3045       N  0.92490021  0.42323003  0.55629403    -0.38360
N3046       N  0.79740119  0.29569631  0.93236973    -0.38360
C3047       C  0.86967817  0.34761007  0.78196485    -0.05030
C3048       C  0.87946961  0.34002153  0.75188172    -0.02140
C3049       C  0.86945030  0.34379836  0.72090163     0.02850
C3050       C  0.84913201  0.35507009  0.71935412    -0.05020
C3051       C  0.83761097  0.36052602  0.74943820    -0.02130
C3052       C  0.84805237  0.35728179  0.78035106     0.02840
C3053       C  0.89980636  0.32801240  0.75243737     0.37490
C3054       C  0.81484569  0.36961821  0.74891811     0.37480
C3055       C  0.83718966  0.36546628  0.81031721     0.35910
C3056       C  0.88135580  0.33713144  0.69074426     0.35910
N3057       N  0.82808110  0.37204488  0.83379667    -0.38910
N3058       N  0.89092133  0.33167944  0.66685571    -0.38910
N3059       N  0.79678533  0.37695497  0.74860526    -0.38360
N3060       N  0.91590011  0.31824630  0.75247485    -0.38360
O3061       O  0.94428800  0.91003701  0.34134447    -0.79820
O3062       O  0.95595754  0.84462544  0.44757727    -0.79850
O3063       O  0.86860646  0.83162210  0.40736245    -0.79860
O3064       O  0.00074222  0.87884113  0.37827741    -0.79800
O3065       O  0.90917041  0.84908230  0.43648424    -0.79920
O3066       O  0.97223691  0.89872080  0.39198652    -0.79840
O3067       O  0.98188976  0.82878564  0.41892252    -0.79820
O3068       O  0.91097324  0.88623077  0.38018509    -0.79860
C3069       C  0.92563749  0.91020124  0.36212139     1.09870
C3070       C  0.97655059  0.83820993  0.44645566     1.09750
C3071       C  0.88259221  0.84366558  0.43437255     1.09890
C3072       C  0.99828665  0.90123338  0.39070654     1.09770
O3073       O  0.97387239  0.88085694  0.32540194    -0.79830
O3074       O  0.87490509  0.78531489  0.40784181    -0.79900
O3075       O  0.86684040  0.84155079  0.34100284    -0.79840
O3076       O  0.94276746  0.78782598  0.36710381    -0.79820
O3077       O  0.92477841  0.78160542  0.41822733    -0.79870
O3078       O  0.91031865  0.85187616  0.31758149    -0.79840
O3079       O  0.96434513  0.83400084  0.32421377    -0.79790
O3080       O  0.87718518  0.79576300  0.35532543    -0.79860
Co3081     Co  0.94112035  0.87388719  0.35757427     1.51530
Co3082     Co  0.91694675  0.81659559  0.42564019     1.51690
Co3083     Co  0.89624079  0.83971399  0.36720304     1.51570
Co3084     Co  0.96998128  0.83269134  0.37212662     1.51470
O3085       O  0.93274248  0.83680446  0.38240681    -1.41760
C3086       C  0.97691562  0.85989101  0.31131410     1.09790
C3087       C  0.86411280  0.77736044  0.37845965     1.09880
C3088       C  0.88270555  0.84684920  0.31485355     1.09820
C3089       C  0.92992534  0.77076301  0.39147228     1.09790
O3090       O  0.95114521  0.60902590  0.31448796    -0.79820
O3091       O  0.93374738  0.54489715  0.36748747    -0.79850
O3092       O  0.48748735  0.60675098  0.37579374    -0.79860
O3093       O  0.85589085  0.53200125  0.34144281    -0.79800
O3094       O  0.97555042  0.57512321  0.41611495    -0.79920
O3095       O  0.89673250  0.55840993  0.31104882    -0.79840
O3096       O  0.88678045  0.51728725  0.38560682    -0.79820
O3097       O  0.97647045  0.64998563  0.34532871    -0.79860
C3098       C  0.97272231  0.63666088  0.31710440     1.09870
C3099       C  0.91086666  0.51872256  0.37350358     1.09750
C3100       C  0.49489273  0.59146786  0.39499444     1.09890
C3101       C  0.87081695  0.53477868  0.31494821     1.09770
O3102       O  0.86653718  0.59000953  0.33756158    -0.79830
O3103       O  0.95702246  0.61411233  0.43618832    -0.79900
O3104       O  0.93445981  0.64460240  0.39679377    -0.79840
O3105       O  0.88240807  0.55943873  0.43559255    -0.79820
O3106       O  0.91908402  0.55024847  0.43468559    -0.79870
O3107       O  0.92249729  0.64234292  0.34450868    -0.79840
O3108       O  0.85675236  0.57657401  0.38969421    -0.79790
O3109       O  0.99154078  0.65570600  0.41028338    -0.79860
Co3110     Co  0.90988470  0.59914339  0.32922884     1.51530
Co3111     Co  0.94402247  0.57923334  0.39927408     1.51690
Co3112     Co  0.95767847  0.62408544  0.38618823     1.51570
Co3113     Co  0.87354110  0.54926683  0.38755724     1.51470
O3114       O  0.91571402  0.58640909  0.37375493    -1.41760
C3115       C  0.85085997  0.58598565  0.36401098     1.09790
C3116       C  0.98162781  0.64137961  0.43692476     1.09880
C3117       C  0.92524861  0.65398969  0.37372649     1.09820
C3118       C  0.89629392  0.54845474  0.44954676     1.09790
O3119       O  0.53771522  0.91577474  0.12438017    -0.79820
O3120       O  0.66566671  0.98476489  0.08403729    -0.79850
O3121       O  0.58888994  0.97702964  0.11458102    -0.79860
O3122       O  0.56951053  0.90663562  0.06064381    -0.79800
O3123       O  0.63714626  0.00435239  0.12986000    -0.79920
O3124       O  0.54512942  0.86989660  0.09516350    -0.79840
O3125       O  0.62553252  0.95663339  0.05179782    -0.79820
O3126       O  0.54861697  0.95020517  0.16485151    -0.79860
C3127       C  0.52915435  0.93069694  0.14425766     1.09870
C3128       C  0.65203982  0.97979254  0.05647891     1.09750
C3129       C  0.61245596  0.00299183  0.12064666     1.09890
C3130       C  0.54776128  0.87981296  0.06621310     1.09770
O3131       O  0.58925750  0.87819761  0.14388169    -0.79830
O3132       O  0.64204083  0.96285205  0.17725970    -0.79900
O3133       O  0.57141835  0.91542138  0.18423723    -0.79840
O3134       O  0.65388469  0.92544186  0.07970491    -0.79820
O3135       O  0.66537600  0.94325474  0.13139516    -0.79870
O3136       O  0.53418367  0.87188941  0.16242623    -0.79840
O3137       O  0.59715003  0.87491411  0.09049750    -0.79790
O3138       O  0.60989688  0.97824874  0.18084589    -0.79860
Co3139     Co  0.56681001  0.89926589  0.13456154     1.51530
Co3140     Co  0.64973565  0.97136854  0.13015228     1.51690
Co3141     Co  0.58101582  0.94589216  0.14659244     1.51570
Co3142     Co  0.61092115  0.91714832  0.07321657     1.51470
O3143       O  0.60714112  0.93502694  0.11784884    -1.41760
C3144       C  0.59369405  0.86437589  0.11954948     1.09790
C3145       C  0.63281868  0.97833016  0.19253744     1.09880
C3146       C  0.54621431  0.88938050  0.18797191     1.09820
C3147       C  0.66946985  0.93053531  0.10602989     1.09790
O3148       O  0.67517207  0.65907773  0.34233994    -0.79820
O3149       O  0.62161157  0.52919793  0.37630280    -0.79850
O3150       O  0.70455109  0.58532276  0.31374231    -0.79860
O3151       O  0.62400097  0.59427214  0.41932301    -0.79800
O3152       O  0.65767959  0.55271736  0.32574118    -0.79920
O3153       O  0.62909959  0.60359340  0.36577494    -0.79840
O3154       O  0.62430092  0.54050271  0.42950013    -0.79820
O3155       O  0.67910917  0.62137329  0.31803850    -0.79860
C3156       C  0.67315050  0.64321648  0.31628137     1.09870
C3157       C  0.61001061  0.52264413  0.40457856     1.09750
C3158       C  0.67938143  0.56104124  0.30597777     1.09890
C3159       C  0.61357873  0.59784865  0.39241011     1.09770
O3160       O  0.66883308  0.65050821  0.40961043    -0.79830
O3161       O  0.71028286  0.55937831  0.36321832    -0.79900
O3162       O  0.74000716  0.64782542  0.32991041    -0.79840
O3163       O  0.68997188  0.57920687  0.44485400    -0.79820
O3164       O  0.67161244  0.53529908  0.41666336    -0.79870
O3165       O  0.72148884  0.65866670  0.37476894    -0.79840
O3166       O  0.68770241  0.63098383  0.44027359    -0.79790
O3167       O  0.73485756  0.60893749  0.37724271    -0.79860
Co3168     Co  0.67441435  0.62840256  0.36923730     1.51530
Co3169     Co  0.66557616  0.54670513  0.37084626     1.51690
Co3170     Co  0.70606786  0.61485140  0.35081838     1.51570
Co3171     Co  0.65789819  0.58673477  0.43105003     1.51470
O3172       O  0.67293519  0.58942932  0.38375187    -1.41760
C3173       C  0.67657397  0.64799653  0.43828501     1.09790
C3174       C  0.73516169  0.58436968  0.37101258     1.09880
C3175       C  0.74381177  0.66644182  0.35397654     1.09820
C3176       C  0.68490693  0.55211245  0.44253655     1.09790
O3177       O  0.53304950  0.61868716  0.16455866    -0.79820
O3178       O  0.63112734  0.70478500  0.06594514    -0.79850
O3179       O  0.54528300  0.66529453  0.07104950    -0.79860
O3180       O  0.63219643  0.64024015  0.12643074    -0.79800
O3181       O  0.58171976  0.71266447  0.06204124    -0.79920
O3182       O  0.58243023  0.61742511  0.13533032    -0.79840
O3183       O  0.60811646  0.65599787  0.07711210    -0.79820
O3184       O  0.52531371  0.62486162  0.11401207    -0.79860
C3185       C  0.51658751  0.60854700  0.13881974     1.09870
C3186       C  0.62406923  0.67733030  0.05723099     1.09750
C3187       C  0.55870491  0.68709116  0.05200858     1.09890
C3188       C  0.60664706  0.61553715  0.12988176     1.09770
O3189       O  0.58381131  0.63417580  0.19976087    -0.79830
O3190       O  0.59615775  0.74057219  0.12995871    -0.79900
O3191       O  0.52925926  0.66987484  0.16555856    -0.79840
O3192       O  0.65719389  0.70207373  0.11862839    -0.79820
O3193       O  0.64206917  0.73288610  0.13484918    -0.79870
O3194       O  0.56974401  0.67869089  0.19333682    -0.79840
O3195       O  0.62519110  0.67237500  0.17696469    -0.79790
O3196       O  0.54823253  0.71346912  0.11483334    -0.79860
Co3197     Co  0.57794684  0.65175021  0.16253852     1.51530
Co3198     Co  0.61125281  0.72034565  0.10014814     1.51690
Co3199     Co  0.54005688  0.66916417  0.11724075     1.51570
Co3200     Co  0.61425695  0.66470368  0.12580637     1.51470
O3201       O  0.58420798  0.67984973  0.12437982    -1.41760
C3202       C  0.61243091  0.65300098  0.20075562     1.09790
C3203       C  0.57186177  0.73938273  0.12308478     1.09880
C3204       C  0.54308676  0.67498724  0.19317964     1.09820
C3205       C  0.66376440  0.72918175  0.12733303     1.09790
O3206       O  0.89796605  0.92064233  0.16383580    -0.79820
O3207       O  0.84410422  0.94281788  0.05515199    -0.79850
O3208       O  0.83560736  0.85340485  0.08760102    -0.79860
O3209       O  0.88022307  0.98209816  0.11653367    -0.79800
O3210       O  0.84785543  0.89306099  0.05733434    -0.79920
O3211       O  0.89890250  0.97244695  0.15814450    -0.79840
O3212       O  0.83189148  0.96999004  0.08859162    -0.79820
O3213       O  0.88584104  0.89443873  0.11816734    -0.79860
C3214       C  0.90457963  0.90720053  0.14151363     1.09870
C3215       C  0.84365710  0.96728512  0.06148486     1.09750
C3216       C  0.84492810  0.86721247  0.06032875     1.09890
C3217       C  0.90264244  0.98939366  0.13438687     1.09770
O3218       O  0.83548052  0.94359743  0.18469428    -0.79830
O3219       O  0.78807863  0.85807489  0.08752617    -0.79900
O3220       O  0.84427973  0.85204151  0.15936081    -0.79840
O3221       O  0.79283716  0.92519845  0.13800791    -0.79820
O3222       O  0.78555282  0.91083145  0.08569022    -0.79870
O3223       O  0.83718549  0.88679730  0.18654812    -0.79840
O3224       O  0.83895862  0.98353529  0.16029896    -0.79790
O3225       O  0.79799456  0.85958042  0.13998743    -0.79860
Co3226     Co  0.86471126  0.92972866  0.16776502     1.51530
Co3227     Co  0.81822950  0.90215743  0.07457086     1.51690
Co3228     Co  0.84235890  0.87957584  0.12995914     1.51570
Co3229     Co  0.83793628  0.95230121  0.12984245     1.51470
O3230       O  0.84507541  0.91810479  0.11671859    -1.41760
C3231       C  0.83988313  0.97112473  0.18683650     1.09790
C3232       C  0.78011996  0.84626502  0.11589016     1.09880
C3233       C  0.84299616  0.86464646  0.18700225     1.09820
C3234       C  0.77612191  0.91687216  0.11232963     1.09790
C3235       C  0.98736732  0.57800664  0.13661019    -0.05030
C3236       C  0.98612561  0.55112701  0.14674790    -0.02140
C3237       C  0.96001069  0.52187443  0.14004124     0.02850
C3238       C  0.93244900  0.51907135  0.12965096    -0.05020
C3239       C  0.93337468  0.54608027  0.11952555    -0.02130
C3240       C  0.96121712  0.57498302  0.12095815     0.02840
C3241       C  0.51190641  0.55301189  0.16318256     0.37490
C3242       C  0.90574220  0.54485342  0.10900990     0.37480
C3243       C  0.96254408  0.60159008  0.10678011     0.35910
C3244       C  0.96283835  0.49501853  0.14068142     0.35910
N3245       N  0.96364519  0.62265982  0.09504111    -0.38910
N3246       N  0.96723747  0.97481186  0.13960618    -0.38910
N3247       N  0.88384571  0.54436374  0.10096256    -0.38360
N3248       N  0.53200851  0.55363129  0.17652449    -0.38360
C3249       C  0.69460440  0.75751022  0.12306013    -0.05030
C3250       C  0.69721464  0.78110064  0.10307543    -0.02140
C3251       C  0.72467832  0.80990804  0.10139104     0.02850
C3252       C  0.75060469  0.81595978  0.11973029    -0.05020
C3253       C  0.74809132  0.79214097  0.13985799    -0.02130
C3254       C  0.72026268  0.76308097  0.14124463     0.02840
C3255       C  0.67144338  0.77585142  0.08366960     0.37490
C3256       C  0.77370101  0.79636902  0.15902741     0.37480
C3257       C  0.71773985  0.73912496  0.16206847     0.35910
C3258       C  0.72555699  0.83356426  0.08125053     0.35910
N3259       N  0.71577123  0.72001750  0.17863653    -0.38910
N3260       N  0.72573983  0.85196351  0.06493425    -0.38910
N3261       N  0.79264649  0.79735359  0.17523987    -0.38360
N3262       N  0.65113662  0.77213904  0.06792970    -0.38360
C3263       C  0.66006886  0.64664887  0.28520342    -0.05030
C3264       C  0.66867260  0.67609690  0.27339486    -0.02140
C3265       C  0.65362597  0.67859978  0.24552814     0.02850
C3266       C  0.63025762  0.65165277  0.22893484    -0.05020
C3267       C  0.62272823  0.62234645  0.24023644    -0.02130
C3268       C  0.63686061  0.61985771  0.26846123     0.02840
C3269       C  0.69281940  0.70382143  0.29007054     0.37490
C3270       C  0.60093564  0.59401372  0.22258170     0.37480
C3271       C  0.62552496  0.58935534  0.28143911     0.35910
C3272       C  0.66128018  0.70884815  0.23497690     0.35910
N3273       N  0.61574360  0.56484902  0.29142649    -0.38910
N3274       N  0.66733777  0.73301256  0.22662827    -0.38910
N3275       N  0.58424076  0.57048969  0.20956229    -0.38360
N3276       N  0.71209447  0.72591763  0.30343983    -0.38360
C3277       C  0.66518769  0.65724046  0.46897485    -0.05030
C3278       C  0.64938001  0.63529340  0.99351721    -0.02140
C3279       C  0.63409429  0.64114226  0.01976817     0.02850
C3280       C  0.63689937  0.67043336  0.02537089    -0.05020
C3281       C  0.65331869  0.69282226  0.00082711    -0.02130
C3282       C  0.66648935  0.68589898  0.47256532     0.02840
C3283       C  0.64672787  0.60519364  0.99139022     0.37490
C3284       C  0.65575608  0.72266326  0.00320910     0.37480
C3285       C  0.68186168  0.70860400  0.44732948     0.35910
C3286       C  0.61297626  0.61493376  0.03847132     0.35910
N3287       N  0.69408816  0.72672623  0.42716397    -0.38910
N3288       N  0.59558462  0.59217449  0.05058730    -0.38910
N3289       N  0.65796173  0.74664426  0.00412848    -0.38360
N3290       N  0.64350805  0.58078459  0.49119774    -0.38360
C3291       C  0.68901056  0.53823574  0.47267439    -0.05030
C3292       C  0.69095065  0.55174602  0.00478235    -0.02140
C3293       C  0.68001994  0.53289667  0.03263187     0.02850
C3294       C  0.66782743  0.00070351  0.02859940    -0.05020
C3295       C  0.67123600  0.98863851  0.49755139    -0.02130
C3296       C  0.68398131  0.00813207  0.47043884     0.02840
C3297       C  0.70442490  0.58492042  0.00956821     0.37490
C3298       C  0.66170114  0.95628553  0.49318418     0.37480
C3299       C  0.69410892  0.99829601  0.44115174     0.35910
C3300       C  0.67966023  0.54662201  0.06478671     0.35910
N3301       N  0.70264066  0.99071229  0.41792025    -0.38910
N3302       N  0.67980470  0.55843878  0.09002490    -0.38910
N3303       N  0.65445492  0.93057375  0.48931066    -0.38360
N3304       N  0.71532197  0.61138158  0.01360854    -0.38360
C3305       C  0.67465889  0.53997196  0.27681502    -0.05030
C3306       C  0.65749667  0.50748782  0.28102034    -0.02140
C3307       C  0.64527098  0.98688444  0.25329493     0.02850
C3308       C  0.65072635  0.99859775  0.22133072    -0.05020
C3309       C  0.67393585  0.52989685  0.21710091    -0.02130
C3310       C  0.68452015  0.55101492  0.24473004     0.02840
C3311       C  0.65274842  0.99514971  0.31386506     0.37490
C3312       C  0.68644863  0.54055986  0.18449556     0.37480
C3313       C  0.70382653  0.58394386  0.23991535     0.35910
C3314       C  0.62791931  0.95370935  0.25753292     0.35910
N3315       N  0.71911584  0.61026090  0.23610652    -0.38910
N3316       N  0.61433725  0.92724523  0.26092065    -0.38910
N3317       N  0.69717324  0.54947509  0.15878571    -0.38360
N3318       N  0.64918573  0.98519829  0.33998151    -0.38360
C3319       C  0.60950097  0.53114246  0.12247547    -0.05030
C3320       C  0.62634504  0.55470056  0.14657754    -0.02140
C3321       C  0.62882741  0.58346879  0.14456189     0.02850
C3322       C  0.60569373  0.58544181  0.12815603    -0.05020
C3323       C  0.58232742  0.55840525  0.11143774    -0.02130
C3324       C  0.58616631  0.53267047  0.10548322     0.02840
C3325       C  0.62703272  0.54578356  0.17987102     0.37490
C3326       C  0.55503616  0.55708715  0.09944935     0.37480
C3327       C  0.56553539  0.50776929  0.08280092     0.35910
C3328       C  0.65261662  0.60945456  0.16391119     0.35910
N3329       N  0.54900677  0.98797561  0.06463560    -0.38910
N3330       N  0.67176942  0.63005788  0.17925712    -0.38910
N3331       N  0.53342751  0.55592353  0.08915505    -0.38360
N3332       N  0.62462979  0.53963943  0.20749569    -0.38360
C3333       C  0.59079587  0.83340528  0.12322368    -0.05030
C3334       C  0.59965338  0.82075680  0.09650052    -0.02140
C3335       C  0.58975673  0.78908010  0.09477748     0.02850
C3336       C  0.57367149  0.76973207  0.12147812    -0.05020
C3337       C  0.56774289  0.78301735  0.14996120    -0.02130
C3338       C  0.57620859  0.81463319  0.15094566     0.02840
C3339       C  0.62092064  0.84066414  0.07144953     0.37490
C3340       C  0.55361797  0.76425742  0.17863090     0.37480
C3341       C  0.57201190  0.82807960  0.18151970     0.35910
C3342       C  0.59616964  0.77713617  0.06444936     0.35910
N3343       N  0.56941655  0.83888151  0.20631350    -0.38910
N3344       N  0.60161043  0.77002577  0.03875175    -0.38910
N3345       N  0.54237519  0.74924498  0.20147444    -0.38360
N3346       N  0.63811423  0.85635440  0.05165284    -0.38360
C3347       C  0.69493775  0.92413737  0.10672594    -0.05030
C3348       C  0.71663790  0.93431787  0.08092885    -0.02140
C3349       C  0.74165882  0.92988011  0.08197215     0.02850
C3350       C  0.74741981  0.91811769  0.11066738    -0.05020
C3351       C  0.72575723  0.90797231  0.13666777    -0.02130
C3352       C  0.69930627  0.91034616  0.13439062     0.02840
C3353       C  0.71519595  0.95218520  0.05455127     0.37490
C3354       C  0.72993843  0.89381543  0.16501773     0.37480
C3355       C  0.67639032  0.89825840  0.16039819     0.35910
C3356       C  0.76129731  0.93774909  0.05292168     0.35910
N3357       N  0.65803090  0.88854898  0.18107374    -0.38910
N3358       N  0.77617407  0.94338214  0.02922457    -0.38910
N3359       N  0.73329815  0.88243557  0.18757377    -0.38360
N3360       N  0.71532408  0.96728903  0.03372060    -0.38360
C3361       C  0.99684596  0.92410527  0.14380430    -0.05030
C3362       C  0.98326349  0.92835997  0.17307131    -0.02140
C3363       C  0.95200086  0.91917165  0.17350640     0.02850
C3364       C  0.93406128  0.90728918  0.14413750    -0.05020
C3365       C  0.94621955  0.89855496  0.11711766    -0.02130
C3366       C  0.97795545  0.90983495  0.11548966     0.02840
C3367       C  0.00119997  0.94405103  0.20262299     0.37490
C3368       C  0.92584821  0.87387333  0.09419589     0.37480
C3369       C  0.99135720  0.90993275  0.08346407     0.35910
C3370       C  0.93843015  0.92157526  0.20473127     0.35910
N3371       N  0.00208698  0.91099661  0.05762606    -0.38910
N3372       N  0.92775814  0.92343028  0.22968460    -0.38910
N3373       N  0.90971143  0.85314556  0.07675379    -0.38360
N3374       N  0.51430645  0.95724246  0.22659566    -0.38360
C3375       C  0.00003033  0.65450738  0.46751241    -0.05030
C3376       C  0.51393230  0.68615091  0.47698644    -0.02140
C3377       C  0.53306532  0.69770630  0.00533506     0.02850
C3378       C  0.54483714  0.68028681  0.01844910    -0.05020
C3379       C  0.53328413  0.64967167  0.00552052    -0.02130
C3380       C  0.50761889  0.63588124  0.48481083     0.02840
C3381       C  0.50610344  0.70588436  0.46002218     0.37490
C3382       C  0.54487909  0.63067033  0.01672399     0.37480
C3383       C  0.98656107  0.60281483  0.48586330     0.35910
C3384       C  0.53467765  0.72358378  0.02394010     0.35910
N3385       N  0.96886478  0.57679321  0.48869102    -0.38910
N3386       N  0.53357466  0.74325704  0.03838157    -0.38910
N3387       N  0.55338729  0.61491002  0.02554479    -0.38360
N3388       N  0.00020380  0.72189923  0.44647782    -0.38360
C3389       C  0.52541571  0.67141584  0.22541755    -0.05030
C3390       C  0.49270642  0.65383892  0.22541581    -0.02140
C3391       C  0.97597816  0.64430827  0.25539493     0.02850
C3392       C  0.99107248  0.65237351  0.28648468    -0.05020
C3393       C  0.52313707  0.67357167  0.28700285    -0.02130
C3394       C  0.54026171  0.68240135  0.25679937     0.02840
C3395       C  0.97530169  0.64436413  0.19473419     0.37490
C3396       C  0.53876525  0.68555907  0.31857666     0.37480
C3397       C  0.57320507  0.70298793  0.25828772     0.35910
C3398       C  0.94264623  0.62625219  0.25401452     0.35910
N3399       N  0.59950886  0.71949182  0.25959689    -0.38910
N3400       N  0.91614877  0.61183244  0.25285429    -0.38910
N3401       N  0.55124630  0.69514606  0.34378545    -0.38360
N3402       N  0.96072604  0.63670311  0.17076015    -0.38360
C3403       C  0.88467779  0.53092384  0.48116573    -0.05030
C3404       C  0.86219952  0.53224365  0.50162589    -0.02140
C3405       C  0.84912532  0.51256176  0.02900127     0.02850
C3406       C  0.85969564  0.99281796  0.03745417    -0.05020
C3407       C  0.88528462  0.99542280  0.02028373    -0.02130
C3408       C  0.89548545  0.51149998  0.49077179     0.02840
C3409       C  0.85192085  0.55331811  0.49456571     0.37490
C3410       C  0.90252918  0.98288884  0.03395467     0.37480
C3411       C  0.91494436  0.50511506  0.46932884     0.35910
C3412       C  0.82515169  0.51300240  0.04847371     0.35910
N3413       N  0.92972389  0.49906429  0.45219244    -0.38910
N3414       N  0.80618219  0.51366147  0.06407657    -0.38910
N3415       N  0.91689844  0.97378396  0.04522209    -0.38360
N3416       N  0.84356559  0.57008651  0.48920668    -0.38360
C3417       C  0.84594941  0.98716949  0.22004355    -0.05030
C3418       C  0.87585750  0.50179750  0.23293530    -0.02140
C3419       C  0.88151054  0.51045242  0.26650939     0.02850
C3420       C  0.85918931  0.51178350  0.28642865    -0.05020
C3421       C  0.82884904  0.49737749  0.27408350    -0.02130
C3422       C  0.82206336  0.98402216  0.24122466     0.02840
C3423       C  0.90247405  0.51286298  0.21206618     0.37490
C3424       C  0.80489761  0.49653947  0.29471601     0.37480
C3425       C  0.79098591  0.96851901  0.22868324     0.35910
C3426       C  0.91184934  0.52077602  0.27945649     0.35910
N3427       N  0.76617516  0.95628162  0.21860223    -0.38910
N3428       N  0.93656310  0.52969897  0.28820353    -0.38910
N3429       N  0.78566973  0.49570495  0.31122556    -0.38360
N3430       N  0.92632760  0.52500119  0.19973477    -0.38360
C3431       C  0.52487336  0.59214618  0.39331000    -0.05030
C3432       C  0.53294396  0.57845345  0.41840952    -0.02140
C3433       C  0.56209880  0.58163219  0.41893890     0.02850
C3434       C  0.58359405  0.59700459  0.39334038    -0.05020
C3435       C  0.57582330  0.61122379  0.36889311    -0.02130
C3436       C  0.54625614  0.60713926  0.36774251     0.02840
C3437       C  0.51109945  0.55869522  0.44296661     0.37490
C3438       C  0.59874144  0.63317995  0.34682163     0.37480
C3439       C  0.53717562  0.61564993  0.33814257     0.35910
C3440       C  0.56887563  0.56740618  0.44555340     0.35910
N3441       N  0.52991981  0.62112573  0.31361127    -0.38910
N3442       N  0.57370223  0.55581388  0.46683228    -0.38910
N3443       N  0.61594294  0.65205745  0.32946176    -0.38360
N3444       N  0.49490359  0.54212843  0.46281539    -0.38360
C3445       C  0.82316512  0.58932606  0.36451991    -0.05030
C3446       C  0.81446984  0.59923494  0.39400226    -0.02140
C3447       C  0.78577229  0.59740365  0.39623642     0.02850
C3448       C  0.76523597  0.58566834  0.36911731    -0.05020
C3449       C  0.77453530  0.57713649  0.33920818    -0.02130
C3450       C  0.80342293  0.57954938  0.33670552     0.02840
C3451       C  0.83549564  0.61243417  0.42184945     0.37490
C3452       C  0.75484623  0.56614734  0.31028751     0.37480
C3453       C  0.81250720  0.57167738  0.30521741     0.35910
C3454       C  0.77692566  0.60666539  0.42695544     0.35910
N3455       N  0.81979125  0.56579131  0.27993155    -0.38910
N3456       N  0.76979201  0.61395927  0.45147117    -0.38910
N3457       N  0.74029206  0.55712410  0.28631635    -0.38360
N3458       N  0.85228119  0.62317742  0.44404540    -0.38360
C3459       C  0.52770422  0.86053699  0.03784324    -0.05030
C3460       C  0.99566758  0.84657531  0.03922290    -0.02140
C3461       C  0.97850985  0.83781295  0.00940367     0.02850
C3462       C  0.99319614  0.84114257  0.47805863    -0.05020
C3463       C  0.52388417  0.84828174  0.47790210    -0.02130
C3464       C  0.54127095  0.85886546  0.50750432     0.02840
C3465       C  0.98049082  0.84156994  0.07112519     0.37490
C3466       C  0.53744284  0.84379562  0.44793605     0.37480
C3467       C  0.57298439  0.86692796  0.50708581     0.35910
C3468       C  0.94563003  0.82476568  0.01127017     0.35910
N3469       N  0.59813645  0.87286603  0.50684435    -0.38910
N3470       N  0.91940421  0.81433508  0.01271090    -0.38910
N3471       N  0.54820146  0.83917712  0.42454617    -0.38360
N3472       N  0.96836338  0.83725198  0.09661120    -0.38360
C3473       C  0.99654072  0.86648167  0.28116167    -0.05030
C3474       C  0.99218119  0.84265786  0.25798032    -0.02140
C3475       C  0.50878021  0.84987755  0.22794302     0.02850
C3476       C  0.53107248  0.88096954  0.22118381    -0.05020
C3477       C  0.53695774  0.90445378  0.24567945    -0.02130
C3478       C  0.52029867  0.89717264  0.27550956     0.02840
C3479       C  0.97081406  0.81041544  0.26453576     0.37490
C3480       C  0.55854014  0.93690842  0.24026051     0.37480
C3481       C  0.52863483  0.92173526  0.30071731     0.35910
C3482       C  0.50218522  0.82490016  0.20397183     0.35910
N3483       N  0.53565935  0.94160553  0.32039296    -0.38910
N3484       N  0.49661662  0.80484332  0.18499300    -0.38910
N3485       N  0.57476057  0.96327425  0.23770085    -0.38360
N3486       N  0.95422796  0.78443585  0.26904934    -0.38360
C3487       C  0.91385071  0.99037507  0.36961801    -0.05030
C3488       C  0.89118862  0.96138363  0.38223110    -0.02140
C3489       C  0.89543174  0.93572206  0.38096602     0.02850
C3490       C  0.92172927  0.93781404  0.36570254    -0.05020
C3491       C  0.94419712  0.96658873  0.35275734    -0.02130
C3492       C  0.94086744  0.99262037  0.35571693     0.02840
C3493       C  0.86354854  0.95761046  0.39771496     0.37490
C3494       C  0.97187326  0.97038094  0.33705061     0.37480
C3495       C  0.96638166  0.52169917  0.34458210     0.35910
C3496       C  0.87217506  0.90712097  0.39544482     0.35910
N3497       N  0.98714603  0.54422076  0.33502672    -0.38910
N3498       N  0.85331657  0.88459137  0.40720100    -0.38910
N3499       N  0.99391812  0.97367528  0.32445277    -0.38360
N3500       N  0.84148817  0.95438131  0.41020370    -0.38360
C3501       C  0.92275208  0.73812615  0.38888828    -0.05030
C3502       C  0.92610002  0.72368443  0.41644175    -0.02140
C3503       C  0.92415182  0.69480897  0.41217536     0.02850
C3504       C  0.92041871  0.68072579  0.37992083    -0.05020
C3505       C  0.91367250  0.69371246  0.35316484    -0.02130
C3506       C  0.91458762  0.72191906  0.35783297     0.02840
C3507       C  0.93310599  0.73903351  0.44908941     0.37490
C3508       C  0.90609919  0.67877163  0.32024915     0.37480
C3509       C  0.90714968  0.73417770  0.33009382     0.35910
C3510       C  0.92590233  0.67991744  0.44137221     0.35910
N3511       N  0.90127785  0.74339744  0.30742118    -0.38910
N3512       N  0.92715767  0.66812082  0.46479318    -0.38910
N3513       N  0.90018225  0.66716336  0.29392716    -0.38360
N3514       N  0.93870393  0.75120877  0.47513067    -0.38360
C3515       C  0.58119262  0.99195822  0.40780129    -0.05030
C3516       C  0.58258763  0.96474587  0.40770081    -0.02140
C3517       C  0.55609690  0.93534697  0.40116592     0.02850
C3518       C  0.52662259  0.93190171  0.40042701    -0.05020
C3519       C  0.52541084  0.95936567  0.40459413    -0.02130
C3520       C  0.55241228  0.98862117  0.40284604     0.02840
C3521       C  0.61172548  0.96670126  0.41031926     0.37490
C3522       C  0.49697615  0.95877203  0.40984124     0.37480
C3523       C  0.55032434  0.51280786  0.38754893     0.35910
C3524       C  0.56032705  0.90974440  0.39203904     0.35790
N3525       N  0.54733603  0.53008344  0.37256937    -0.38910
N3526       N  0.56450129  0.89013333  0.38330600    -0.38910
N3527       N  0.97508834  0.95968766  0.41513996    -0.38360
N3528       N  0.63409176  0.96630280  0.41175307    -0.38360
C3529       C  0.83396006  0.74819578  0.37209939    -0.05030
C3530       C  0.82511665  0.73468642  0.33961103    -0.02140
C3531       C  0.79664533  0.70716995  0.33410039     0.02850
C3532       C  0.77439631  0.69531380  0.35975742    -0.05020
C3533       C  0.78220353  0.71090135  0.39134417    -0.02130
C3534       C  0.81234403  0.73517092  0.39813631     0.02840
C3535       C  0.84429022  0.74932328  0.31105928     0.37490
C3536       C  0.75955235  0.70334505  0.41729162     0.37480
C3537       C  0.82027862  0.74685433  0.43227710     0.35910
C3538       C  0.79058316  0.69176168  0.30147938     0.35910
N3539       N  0.82636799  0.75563998  0.45961942    -0.38910
N3540       N  0.78620444  0.67940691  0.27559615    -0.38910
N3541       N  0.74238156  0.69890259  0.43858870    -0.38360
N3542       N  0.85860865  0.76092262  0.28770377    -0.38360
C3543       C  0.87028460  0.85111281  0.46449754    -0.05030
C3544       C  0.83976831  0.83196791  0.47511475    -0.02140
C3545       C  0.83188275  0.83420448  0.50857384     0.02850
C3546       C  0.85432824  0.85619633  0.03096889    -0.05020
C3547       C  0.88410683  0.87694629  0.01925288    -0.02130
C3548       C  0.89183444  0.87479712  0.48636464     0.02840
C3549       C  0.81630116  0.81153158  0.45141046     0.37490
C3550       C  0.90655577  0.90259751  0.04028024     0.37480
C3551       C  0.92238095  0.89772812  0.47519866     0.35910
C3552       C  0.80031389  0.81559373  0.51934343     0.35910
N3553       N  0.94699660  0.91578501  0.96715641    -0.38910
N3554       N  0.77509837  0.80086991  0.52790478    -0.38910
N3555       N  0.92490020  0.92323000  0.05629403    -0.38360
N3556       N  0.79740124  0.79569627  0.43236974    -0.38360
C3557       C  0.86967818  0.84761006  0.28196484    -0.05030
C3558       C  0.87946961  0.84002151  0.25188172    -0.02140
C3559       C  0.86945029  0.84379833  0.22090162     0.02850
C3560       C  0.84913201  0.85507007  0.21935411    -0.05020
C3561       C  0.83761098  0.86052601  0.24943820    -0.02130
C3562       C  0.84805238  0.85728179  0.28035105     0.02840
C3563       C  0.89980636  0.82801238  0.25243737     0.37490
C3564       C  0.81484570  0.86961821  0.24891810     0.37480
C3565       C  0.83718969  0.86546630  0.31031720     0.35910
C3566       C  0.88135579  0.83713140  0.19074426     0.35910
N3567       N  0.82808115  0.87204493  0.33379666    -0.38910
N3568       N  0.89092131  0.83167939  0.16685571    -0.38910
N3569       N  0.79678535  0.87695498  0.24860526    -0.38360
N3570       N  0.91590010  0.81824627  0.25247485    -0.38360
O3571       O  0.94428801  0.91003701  0.84134444    -0.79820
O3572       O  0.95595759  0.84462550  0.94757727    -0.79850
O3573       O  0.86860649  0.83162214  0.90736247    -0.79860
O3574       O  0.00074224  0.87884116  0.87827740    -0.79800
O3575       O  0.90917045  0.84908236  0.93648424    -0.79920
O3576       O  0.97223693  0.89872083  0.89198650    -0.79840
O3577       O  0.98188978  0.82878567  0.91892252    -0.79820
O3578       O  0.91097325  0.88623078  0.88018507    -0.79860
C3579       C  0.92563750  0.91020125  0.86212136     1.09870
C3580       C  0.97655063  0.83820998  0.94645566     1.09750
C3581       C  0.88259225  0.84366562  0.93437256     1.09890
C3582       C  0.99828667  0.90123342  0.89070652     1.09770
O3583       O  0.97387239  0.88085695  0.82540193    -0.79830
O3584       O  0.87490510  0.78531493  0.90784188    -0.79900
O3585       O  0.86684039  0.84155077  0.84100285    -0.79840
O3586       O  0.94276747  0.78782600  0.86710383    -0.79820
O3587       O  0.92477843  0.78160546  0.91822736    -0.79870
O3588       O  0.91031865  0.85187615  0.81758149    -0.79840
O3589       O  0.96434514  0.83400085  0.82421378    -0.79790
O3590       O  0.87718517  0.79576299  0.85532550    -0.79860
Co3591     Co  0.94112036  0.87388721  0.85757427     1.51530
Co3592     Co  0.91694678  0.81659564  0.92564022     1.51690
Co3593     Co  0.89624079  0.83971400  0.86720305     1.51570
Co3594     Co  0.96998130  0.83269137  0.87212662     1.51470
O3595       O  0.93274249  0.83680448  0.88240682    -1.41760
C3596       C  0.97691562  0.85989101  0.81131410     1.09790
C3597       C  0.86411279  0.77736045  0.87845974     1.09880
C3598       C  0.88270554  0.84684919  0.81485356     1.09820
C3599       C  0.92992535  0.77076304  0.89147231     1.09790
O3600       O  0.95114517  0.60902592  0.81448794    -0.79820
O3601       O  0.93374736  0.54489715  0.86748747    -0.79850
O3602       O  0.48748731  0.60675096  0.87579376    -0.79860
O3603       O  0.85589083  0.53200126  0.84144281    -0.79800
O3604       O  0.97555040  0.57512322  0.91611494    -0.79920
O3605       O  0.89673247  0.55840995  0.81104880    -0.79840
O3606       O  0.88678043  0.51728725  0.88560682    -0.79820
O3607       O  0.97647043  0.64998563  0.84532870    -0.79860
C3608       C  0.97272228  0.63666089  0.81710439     1.09870
C3609       C  0.91086664  0.51872256  0.87350358     1.09750
C3610       C  0.49489269  0.59146784  0.89499445     1.09890
C3611       C  0.87081692  0.53477870  0.81494821     1.09770
O3612       O  0.86653715  0.59000955  0.83756160    -0.79830
O3613       O  0.95702244  0.61411233  0.93618831    -0.79900
O3614       O  0.93445979  0.64460241  0.89679377    -0.79840
O3615       O  0.88240805  0.55943873  0.93559255    -0.79820
O3616       O  0.91908400  0.55024847  0.93468558    -0.79870
O3617       O  0.92249726  0.64234294  0.84450868    -0.79840
O3618       O  0.85675234  0.57657402  0.88969422    -0.79790
O3619       O  0.99154075  0.65570601  0.91028339    -0.79860
Co3620     Co  0.90988468  0.59914341  0.82922884     1.51530
Co3621     Co  0.94402245  0.57923335  0.89927407     1.51690
Co3622     Co  0.95767845  0.62408546  0.88618823     1.51570
Co3623     Co  0.87354108  0.54926683  0.88755724     1.51470
O3624       O  0.91571400  0.58640910  0.87375492    -1.41760
C3625       C  0.85085995  0.58598566  0.86401100     1.09790
C3626       C  0.98162778  0.64137962  0.93692476     1.09880
C3627       C  0.92524859  0.65398971  0.87372649     1.09820
C3628       C  0.89629391  0.54845474  0.94954675     1.09790
O3629       O  0.53771520  0.91577473  0.62438016    -0.79820
O3630       O  0.66566668  0.98476489  0.58403728    -0.79850
O3631       O  0.58888992  0.97702964  0.61458102    -0.79860
O3632       O  0.56951050  0.90663560  0.56064381    -0.79800
O3633       O  0.63714623  0.00435238  0.62986000    -0.79920
O3634       O  0.54512940  0.86989659  0.59516350    -0.79840
O3635       O  0.62553249  0.95663339  0.55179782    -0.79820
O3636       O  0.54861695  0.95020516  0.66485151    -0.79860
C3637       C  0.52915433  0.93069694  0.64425767     1.09870
C3638       C  0.65203979  0.97979253  0.55647890     1.09750
C3639       C  0.61245593  0.00299182  0.62064667     1.09890
C3640       C  0.54776126  0.87981294  0.56621310     1.09770
O3641       O  0.58925749  0.87819761  0.64388170    -0.79830
O3642       O  0.64204080  0.96285203  0.67725969    -0.79900
O3643       O  0.57141834  0.91542137  0.68423722    -0.79840
O3644       O  0.65388467  0.92544186  0.57970489    -0.79820
O3645       O  0.66537599  0.94325474  0.63139514    -0.79870
O3646       O  0.53418365  0.87188941  0.66242623    -0.79840
O3647       O  0.59715002  0.87491411  0.59049751    -0.79790
O3648       O  0.60989686  0.97824872  0.68084589    -0.79860
Co3649     Co  0.56680999  0.89926589  0.63456154     1.51530
Co3650     Co  0.64973562  0.97136853  0.63015227     1.51690
Co3651     Co  0.58101580  0.94589215  0.64659244     1.51570
Co3652     Co  0.61092113  0.91714832  0.57321656     1.51470
O3653       O  0.60714109  0.93502694  0.61784884    -1.41760
C3654       C  0.59369404  0.86437589  0.61954949     1.09790
C3655       C  0.63281865  0.97833013  0.69253744     1.09880
C3656       C  0.54621429  0.88938049  0.68797191     1.09820
C3657       C  0.66946983  0.93053531  0.60602988     1.09790
O3658       O  0.67517202  0.65907769  0.84233996    -0.79820
O3659       O  0.62161152  0.52919787  0.87630280    -0.79850
O3660       O  0.70455108  0.58532274  0.81374236    -0.79860
O3661       O  0.62400090  0.59427207  0.91932300    -0.79800
O3662       O  0.65767956  0.55271734  0.82574119    -0.79920
O3663       O  0.62909954  0.60359335  0.86577493    -0.79840
O3664       O  0.62430086  0.54050265  0.92950012    -0.79820
O3665       O  0.67910919  0.62137329  0.81803852    -0.79860
C3666       C  0.67315049  0.64321647  0.81628139     1.09870
C3667       C  0.61001055  0.52264407  0.90457855     1.09750
C3668       C  0.67938142  0.56104123  0.80597779     1.09890
C3669       C  0.61357867  0.59784858  0.89241009     1.09770
O3670       O  0.66883301  0.65050814  0.90961043    -0.79830
O3671       O  0.71028281  0.55937826  0.86321833    -0.79900
O3672       O  0.74000717  0.64782539  0.82991053    -0.79840
O3673       O  0.68997182  0.57920681  0.94485399    -0.79820
O3674       O  0.67161239  0.53529902  0.91666335    -0.79870
O3675       O  0.72148878  0.65866667  0.87476900    -0.79840
O3676       O  0.68770234  0.63098377  0.94027358    -0.79790
O3677       O  0.73485749  0.60893742  0.87724280    -0.79860
Co3678     Co  0.67441429  0.62840252  0.86923731     1.51530
Co3679     Co  0.66557612  0.54670509  0.87084626     1.51690
Co3680     Co  0.70606784  0.61485136  0.85081844     1.51570
Co3681     Co  0.65789813  0.58673470  0.93105002     1.51470
O3682       O  0.67293513  0.58942927  0.88375187    -1.41760
C3683       C  0.67657391  0.64799646  0.93828500     1.09790
C3684       C  0.73516163  0.58436963  0.87101264     1.09880
C3685       C  0.74381175  0.66644179  0.85397666     1.09820
C3686       C  0.68490688  0.55211240  0.94253653     1.09790
O3687       O  0.53304950  0.61868716  0.66455868    -0.79820
O3688       O  0.63112736  0.70478502  0.56594519    -0.79850
O3689       O  0.54528297  0.66529456  0.57104953    -0.79860
O3690       O  0.63219644  0.64024017  0.62643077    -0.79800
O3691       O  0.58171977  0.71266448  0.56204126    -0.79920
O3692       O  0.58243024  0.61742512  0.63533033    -0.79840
O3693       O  0.60811648  0.65599789  0.57711213    -0.79820
O3694       O  0.52531369  0.62486163  0.61401209    -0.79860
C3695       C  0.51658750  0.60854701  0.63881976     1.09870
C3696       C  0.62406926  0.67733033  0.55723103     1.09750
C3697       C  0.55870490  0.68709117  0.55200861     1.09890
C3698       C  0.60664707  0.61553716  0.62988177     1.09770
O3699       O  0.58381131  0.63417579  0.69976088    -0.79830
O3700       O  0.59615773  0.74057220  0.62995874    -0.79900
O3701       O  0.52925925  0.66987484  0.66555860    -0.79840
O3702       O  0.65719389  0.70207375  0.61862844    -0.79820
O3703       O  0.64206916  0.73288610  0.63484924    -0.79870
O3704       O  0.56974400  0.67869087  0.69333686    -0.79840
O3705       O  0.62519109  0.67237500  0.67696472    -0.79790
O3706       O  0.54823252  0.71346913  0.61483338    -0.79860
Co3707     Co  0.57794684  0.65175021  0.66253854     1.51530
Co3708     Co  0.61125281  0.72034566  0.60014818     1.51690
Co3709     Co  0.54005687  0.66916418  0.61724079     1.51570
Co3710     Co  0.61425696  0.66470370  0.62580640     1.51470
O3711       O  0.58420797  0.67984973  0.62437985    -1.41760
C3712       C  0.61243090  0.65300098  0.70075565     1.09790
C3713       C  0.57186176  0.73938274  0.62308482     1.09880
C3714       C  0.54308675  0.67498723  0.69317968     1.09820
C3715       C  0.66376439  0.72918177  0.62733309     1.09790
O3716       O  0.89796605  0.92064238  0.66383580    -0.79820
O3717       O  0.84410420  0.94281789  0.55515199    -0.79850
O3718       O  0.83560736  0.85340487  0.58760102    -0.79860
O3719       O  0.88022307  0.98209816  0.61653365    -0.79800
O3720       O  0.84785543  0.89306101  0.55733434    -0.79920
O3721       O  0.89890248  0.97244702  0.65814455    -0.79840
O3722       O  0.83189147  0.96999005  0.58859161    -0.79820
O3723       O  0.88584103  0.89443876  0.61816735    -0.79860
C3724       C  0.90457963  0.90720057  0.64151363     1.09870
C3725       C  0.84365709  0.96728513  0.56148485     1.09750
C3726       C  0.84492809  0.86721249  0.56032874     1.09890
C3727       C  0.90264244  0.98939368  0.63438687     1.09770
O3728       O  0.83548049  0.94359746  0.68469428    -0.79830
O3729       O  0.78807862  0.85807490  0.58752617    -0.79900
O3730       O  0.84427974  0.85204155  0.65936082    -0.79840
O3731       O  0.79283715  0.92519847  0.63800790    -0.79820
O3732       O  0.78555281  0.91083145  0.58569022    -0.79870
O3733       O  0.83718549  0.88679733  0.68654813    -0.79840
O3734       O  0.83895861  0.98353532  0.66029893    -0.79790
O3735       O  0.79799456  0.85958044  0.63998744    -0.79860
Co3736     Co  0.86471125  0.92972870  0.66776503     1.51530
Co3737     Co  0.81822949  0.90215745  0.57457086     1.51690
Co3738     Co  0.84235890  0.87957587  0.62995914     1.51570
Co3739     Co  0.83793627  0.95230123  0.62984244     1.51470
O3740       O  0.84507541  0.91810481  0.61671859    -1.41760
C3741       C  0.83988309  0.97112475  0.68683648     1.09790
C3742       C  0.78011995  0.84626503  0.61589016     1.09880
C3743       C  0.84299617  0.86464650  0.68700226     1.09820
C3744       C  0.77612190  0.91687218  0.61232963     1.09790
C3745       C  0.98736732  0.57800666  0.63661019    -0.05030
C3746       C  0.98612561  0.55112703  0.64674790    -0.02140
C3747       C  0.96001069  0.52187445  0.64004124     0.02850
C3748       C  0.93244900  0.51907138  0.62965097    -0.05020
C3749       C  0.93337468  0.54608030  0.61952556    -0.02130
C3750       C  0.96121712  0.57498305  0.62095816     0.02840
C3751       C  0.51190640  0.55301189  0.66318255     0.37490
C3752       C  0.90574219  0.54485345  0.60900991     0.37480
C3753       C  0.96254408  0.60159010  0.60678011     0.35910
C3754       C  0.96283835  0.49501855  0.64068144     0.35910
N3755       N  0.96364519  0.62265984  0.59504111    -0.38910
N3756       N  0.96723747  0.97481188  0.63960617    -0.38910
N3757       N  0.88384571  0.54436376  0.60096258    -0.38360
N3758       N  0.53200851  0.55363129  0.67652447    -0.38360
C3759       C  0.69460439  0.75751025  0.62306019    -0.05030
C3760       C  0.69721463  0.78110066  0.60307550    -0.02140
C3761       C  0.72467831  0.80990806  0.60139108     0.02850
C3762       C  0.75060469  0.81595979  0.61973031    -0.05020
C3763       C  0.74809132  0.79214098  0.63985801    -0.02130
C3764       C  0.72026268  0.76308099  0.64124466     0.02840
C3765       C  0.67144334  0.77585146  0.58366972     0.37490
C3766       C  0.77370102  0.79636903  0.65902741     0.37480
C3767       C  0.71773986  0.73912498  0.66206849     0.35910
C3768       C  0.72555698  0.83356427  0.58125056     0.35910
N3769       N  0.71577125  0.72001752  0.67863654    -0.38910
N3770       N  0.72573982  0.85196351  0.56493426    -0.38910
N3771       N  0.79264651  0.79735361  0.67523987    -0.38360
N3772       N  0.65113656  0.77213910  0.56792986    -0.38360
C3773       C  0.66006887  0.64664886  0.78520342    -0.05030
C3774       C  0.66867261  0.67609689  0.77339487    -0.02140
C3775       C  0.65362598  0.67859977  0.74552815     0.02850
C3776       C  0.63025762  0.65165277  0.72893485    -0.05020
C3777       C  0.62272823  0.62234644  0.74023645    -0.02130
C3778       C  0.63686063  0.61985769  0.76846122     0.02840
C3779       C  0.69281940  0.70382141  0.79007056     0.37490
C3780       C  0.60093565  0.59401371  0.72258171     0.37480
C3781       C  0.62552498  0.58935532  0.78143909     0.35910
C3782       C  0.66128018  0.70884814  0.73497693     0.35910
N3783       N  0.61574362  0.56484900  0.79142646    -0.38910
N3784       N  0.66733777  0.73301255  0.72662831    -0.38910
N3785       N  0.58424076  0.57048969  0.70956230    -0.38360
N3786       N  0.71209447  0.72591761  0.80343985    -0.38360
C3787       C  0.66518764  0.65724041  0.96897484    -0.05030
C3788       C  0.64938003  0.63529344  0.49351720    -0.02140
C3789       C  0.63409429  0.64114229  0.51976816     0.02850
C3790       C  0.63689942  0.67043340  0.52537093    -0.05020
C3791       C  0.65331879  0.69282233  0.50082718    -0.02130
C3792       C  0.66648929  0.68589891  0.97256528     0.02840
C3793       C  0.64672788  0.60519368  0.49139021     0.37490
C3794       C  0.65575631  0.72266339  0.50320926     0.37480
C3795       C  0.68186164  0.70860392  0.94732944     0.35910
C3796       C  0.61297622  0.61493377  0.53847127     0.35910
N3797       N  0.69408815  0.72672614  0.92716392    -0.38910
N3798       N  0.59558455  0.59217450  0.55058722    -0.38910
N3799       N  0.65796209  0.74664445  0.50412873    -0.38360
N3800       N  0.64350805  0.58078456  0.99119776    -0.38360
C3801       C  0.68901055  0.53823570  0.97267437    -0.05030
C3802       C  0.69095064  0.55174605  0.50478238    -0.02140
C3803       C  0.68001993  0.53289670  0.53263190     0.02850
C3804       C  0.66782740  0.00070349  0.52859939    -0.05020
C3805       C  0.67123604  0.98863853  0.99755139    -0.02130
C3806       C  0.68398133  0.00813209  0.97043885     0.02840
C3807       C  0.70442487  0.58492045  0.50956824     0.37490
C3808       C  0.66170121  0.95628556  0.99318419     0.37480
C3809       C  0.69410893  0.99829604  0.94115174     0.35910
C3810       C  0.67966022  0.54662202  0.56478674     0.35910
N3811       N  0.70264067  0.99071232  0.91792024    -0.38910
N3812       N  0.67980469  0.55843879  0.59002493    -0.38910
N3813       N  0.65445502  0.93057379  0.98931068    -0.38360
N3814       N  0.71532194  0.61138160  0.51360859    -0.38360
C3815       C  0.67465889  0.53997196  0.77681504    -0.05030
C3816       C  0.65749667  0.50748781  0.78102035    -0.02140
C3817       C  0.64527093  0.98688441  0.75329493     0.02850
C3818       C  0.65072632  0.99859772  0.72133072    -0.05020
C3819       C  0.67393585  0.52989685  0.71710093    -0.02130
C3820       C  0.68452015  0.55101492  0.74473006     0.02840
C3821       C  0.65274834  0.99514968  0.81386507     0.37490
C3822       C  0.68644864  0.54055986  0.68449558     0.37480
C3823       C  0.70382653  0.58394386  0.73991538     0.35910
C3824       C  0.62791926  0.95370932  0.75753292     0.35910
N3825       N  0.71911584  0.61026090  0.73610655    -0.38910
N3826       N  0.61433720  0.92724520  0.76092064    -0.38910
N3827       N  0.69717325  0.54947509  0.65878573    -0.38360
N3828       N  0.64918562  0.98519826  0.83998152    -0.38360
C3829       C  0.60950098  0.53114248  0.62247547    -0.05030
C3830       C  0.62634505  0.55470057  0.64657755    -0.02140
C3831       C  0.62882742  0.58346880  0.64456189     0.02850
C3832       C  0.60569374  0.58544183  0.62815603    -0.05020
C3833       C  0.58232745  0.55840527  0.61143772    -0.02130
C3834       C  0.58616633  0.53267050  0.60548321     0.02840
C3835       C  0.62703274  0.54578358  0.67987102     0.37490
C3836       C  0.55503618  0.55708717  0.59944933     0.37480
C3837       C  0.56553542  0.50776932  0.58280090     0.35910
C3838       C  0.65261663  0.60945457  0.66391119     0.35910
N3839       N  0.54900670  0.98797558  0.56463566    -0.38910
N3840       N  0.67176943  0.63005789  0.67925713    -0.38910
N3841       N  0.53342752  0.55592354  0.58915504    -0.38360
N3842       N  0.62462981  0.53963945  0.70749569    -0.38360
C3843       C  0.59079586  0.83340529  0.62322370    -0.05030
C3844       C  0.59965338  0.82075681  0.59650055    -0.02140
C3845       C  0.58975672  0.78908011  0.59477750     0.02850
C3846       C  0.57367148  0.76973208  0.62147814    -0.05020
C3847       C  0.56774288  0.78301737  0.64996123    -0.02130
C3848       C  0.57620858  0.81463320  0.65094568     0.02840
C3849       C  0.62092065  0.84066414  0.57144957     0.37490
C3850       C  0.55361796  0.76425744  0.67863092     0.37480
C3851       C  0.57201189  0.82807962  0.68151971     0.35910
C3852       C  0.59616961  0.77713617  0.56444938     0.35910
N3853       N  0.56941653  0.83888153  0.70631351    -0.38910
N3854       N  0.60161040  0.77002577  0.53875176    -0.38910
N3855       N  0.54237518  0.74924500  0.70147447    -0.38360
N3856       N  0.63811425  0.85635441  0.55165289    -0.38360
C3857       C  0.69493773  0.92413737  0.60672592    -0.05030
C3858       C  0.71663787  0.93431785  0.58092882    -0.02140
C3859       C  0.74165880  0.92988009  0.58197213     0.02850
C3860       C  0.74741979  0.91811770  0.61066737    -0.05020
C3861       C  0.72575722  0.90797233  0.63666777    -0.02130
C3862       C  0.69930626  0.91034617  0.63439061     0.02840
C3863       C  0.71519590  0.95218515  0.55455121     0.37490
C3864       C  0.72993843  0.89381545  0.66501773     0.37480
C3865       C  0.67639032  0.89825844  0.66039820     0.35910
C3866       C  0.76129728  0.93774907  0.55292166     0.35910
N3867       N  0.65803091  0.88854903  0.68107375    -0.38910
N3868       N  0.77617405  0.94338212  0.52922455    -0.38910
N3869       N  0.73329815  0.88243560  0.68757377    -0.38360
N3870       N  0.71532402  0.96728895  0.53372052    -0.38360
C3871       C  0.99684595  0.92410527  0.64380430    -0.05030
C3872       C  0.98326348  0.92835999  0.67307131    -0.02140
C3873       C  0.95200085  0.91917169  0.67350640     0.02850
C3874       C  0.93406127  0.90728921  0.64413751    -0.05020
C3875       C  0.94621953  0.89855498  0.61711767    -0.02130
C3876       C  0.97795542  0.90983495  0.61548967     0.02840
C3877       C  0.00119996  0.94405105  0.70262299     0.37490
C3878       C  0.92584818  0.87387334  0.59419592     0.37480
C3879       C  0.99135717  0.90993273  0.58346408     0.35910
C3880       C  0.93843015  0.92157531  0.70473127     0.35910
N3881       N  0.00208694  0.91099659  0.55762607    -0.38910
N3882       N  0.92775815  0.92343036  0.72968460    -0.38910
N3883       N  0.90971139  0.85314556  0.57675382    -0.38360
N3884       N  0.51430644  0.95724248  0.72659567    -0.38360
C3885       C  0.00003030  0.65450738  0.96751242    -0.05030
C3886       C  0.51393225  0.68615089  0.97698646    -0.02140
C3887       C  0.53306534  0.69770631  0.50533506     0.02850
C3888       C  0.54483715  0.68028682  0.51844912    -0.05020
C3889       C  0.53328414  0.64967168  0.50552055    -0.02130
C3890       C  0.50761886  0.63588123  0.98481083     0.02840
C3891       C  0.50610337  0.70588434  0.96002222     0.37490
C3892       C  0.54487906  0.63067032  0.51672408     0.37480
C3893       C  0.98656099  0.60281482  0.98586332     0.35910
C3894       C  0.53467765  0.72358379  0.52394009     0.35910
N3895       N  0.96886469  0.57679321  0.98869104    -0.38910
N3896       N  0.53357465  0.74325704  0.53838155    -0.38910
N3897       N  0.55338722  0.61490999  0.52554492    -0.38360
N3898       N  0.00020380  0.72189925  0.94647784    -0.38360
C3899       C  0.52541570  0.67141583  0.72541759    -0.05030
C3900       C  0.49270641  0.65383893  0.72541585    -0.02140
C3901       C  0.97597816  0.64430830  0.75539492     0.02850
C3902       C  0.99107246  0.65237352  0.78648467    -0.05020
C3903       C  0.52313705  0.67357164  0.78700289    -0.02130
C3904       C  0.54026170  0.68240133  0.75679941     0.02840
C3905       C  0.97530170  0.64436417  0.69473417     0.37490
C3906       C  0.53876523  0.68555903  0.81857670     0.37480
C3907       C  0.57320506  0.70298789  0.75828777     0.35910
C3908       C  0.94264623  0.62625222  0.75401450     0.35910
N3909       N  0.59950885  0.71949177  0.75959694    -0.38910
N3910       N  0.91614877  0.61183248  0.75285427    -0.38910
N3911       N  0.55124627  0.69514600  0.84378549    -0.38360
N3912       N  0.96072605  0.63670317  0.67076013    -0.38360
C3913       C  0.88467778  0.53092383  0.98116572    -0.05030
C3914       C  0.86219950  0.53224363  0.00162588    -0.02140
C3915       C  0.84912533  0.51256178  0.52900127     0.02850
C3916       C  0.85969562  0.99281797  0.53745416    -0.05020
C3917       C  0.88528461  0.99542281  0.52028373    -0.02130
C3918       C  0.89548544  0.51149997  0.99077178     0.02840
C3919       C  0.85192083  0.55331809  0.99456571     0.37490
C3920       C  0.90252916  0.98288885  0.53395467     0.37480
C3921       C  0.91494436  0.50511507  0.96932883     0.35910
C3922       C  0.82515170  0.51300242  0.54847370     0.35910
N3923       N  0.92972391  0.49906432  0.95219243    -0.38910
N3924       N  0.80618220  0.51366148  0.56407656    -0.38910
N3925       N  0.91689842  0.97378396  0.54522209    -0.38360
N3926       N  0.84356557  0.57008649  0.98920669    -0.38360
C3927       C  0.84594936  0.98716953  0.72004353    -0.05030
C3928       C  0.87585749  0.50179745  0.73293534    -0.02140
C3929       C  0.88151052  0.51045241  0.76650943     0.02850
C3930       C  0.85918928  0.51178351  0.78642865    -0.05020
C3931       C  0.82884903  0.49737752  0.77408348    -0.02130
C3932       C  0.82206332  0.98402212  0.74122469     0.02840
C3933       C  0.90247406  0.51286283  0.71206626     0.37490
C3934       C  0.80489759  0.49653950  0.79471597     0.37480
C3935       C  0.79098585  0.96851892  0.72868332     0.35910
C3936       C  0.91184931  0.52077600  0.77945657     0.35910
N3937       N  0.76617509  0.95628150  0.71860234    -0.38910
N3938       N  0.93656306  0.52969896  0.78820363    -0.38910
N3939       N  0.78566970  0.49570498  0.81122551    -0.38360
N3940       N  0.92632763  0.52500094  0.69973489    -0.38360
C3941       C  0.52487331  0.59214615  0.89331002    -0.05030
C3942       C  0.53294392  0.57845343  0.91840953    -0.02140
C3943       C  0.56209875  0.58163215  0.91893890     0.02850
C3944       C  0.58359399  0.59700452  0.89334036    -0.05020
C3945       C  0.57582323  0.61122371  0.86889308    -0.02130
C3946       C  0.54625607  0.60713920  0.86774250     0.02840
C3947       C  0.51109942  0.55869522  0.94296665     0.37490
C3948       C  0.59874135  0.63317982  0.84682155     0.37480
C3949       C  0.53717554  0.61564986  0.83814256     0.35910
C3950       C  0.56887559  0.56740617  0.94555342     0.35910
N3951       N  0.52991972  0.62112565  0.81361126    -0.38910
N3952       N  0.57370220  0.55581389  0.96683231    -0.38910
N3953       N  0.61594283  0.65205729  0.82946165    -0.38360
N3954       N  0.49490356  0.54212845  0.96281544    -0.38360
C3955       C  0.82316509  0.58932606  0.86451994    -0.05030
C3956       C  0.81446981  0.59923493  0.89400229    -0.02140
C3957       C  0.78577225  0.59740363  0.89623646     0.02850
C3958       C  0.76523592  0.58566830  0.86911736    -0.05020
C3959       C  0.77453525  0.57713645  0.83920822    -0.02130
C3960       C  0.80342289  0.57954937  0.83670555     0.02840
C3961       C  0.83549562  0.61243418  0.92184948     0.37490
C3962       C  0.75484618  0.56614729  0.81028756     0.37480
C3963       C  0.81250717  0.57167738  0.80521743     0.35910
C3964       C  0.77692563  0.60666538  0.92695548     0.35910
N3965       N  0.81979122  0.56579133  0.77993157    -0.38910
N3966       N  0.76979199  0.61395927  0.95147120    -0.38910
N3967       N  0.74029201  0.55712404  0.78631640    -0.38360
N3968       N  0.85228117  0.62317743  0.94404542    -0.38360
C3969       C  0.52770421  0.86053696  0.53784324    -0.05030
C3970       C  0.99566755  0.84657529  0.53922291    -0.02140
C3971       C  0.97850982  0.83781292  0.50940367     0.02850
C3972       C  0.99319618  0.84114261  0.97805863    -0.05020
C3973       C  0.52388416  0.84828177  0.97790209    -0.02130
C3974       C  0.54127095  0.85886550  0.00750431     0.02840
C3975       C  0.98049080  0.84156993  0.57112519     0.37490
C3976       C  0.53744284  0.84379567  0.94793604     0.37480
C3977       C  0.57298440  0.86692802  0.00708578     0.35910
C3978       C  0.94562999  0.82476566  0.51127018     0.35910
N3979       N  0.59813647  0.87286611  0.00684430    -0.38910
N3980       N  0.91940417  0.81433506  0.51271092    -0.38910
N3981       N  0.54820145  0.83917719  0.92454615    -0.38360
N3982       N  0.96836336  0.83725198  0.59661121    -0.38360
C3983       C  0.99654071  0.86648167  0.78116167    -0.05030
C3984       C  0.99218117  0.84265785  0.75798031    -0.02140
C3985       C  0.50878019  0.84987755  0.72794301     0.02850
C3986       C  0.53107246  0.88096954  0.72118381    -0.05020
C3987       C  0.53695773  0.90445378  0.74567944    -0.02130
C3988       C  0.52029866  0.89717264  0.77550955     0.02840
C3989       C  0.97081402  0.81041543  0.76453575     0.37490
C3990       C  0.55854012  0.93690842  0.74026050     0.37480
C3991       C  0.52863482  0.92173526  0.80071731     0.35910
C3992       C  0.50218521  0.82490015  0.70397182     0.35910
N3993       N  0.53565934  0.94160553  0.82039295    -0.38910
N3994       N  0.49661660  0.80484332  0.68499300    -0.38910
N3995       N  0.57476054  0.96327425  0.73770084    -0.38360
N3996       N  0.95422790  0.78443584  0.76904934    -0.38360
C3997       C  0.91385071  0.99037507  0.86961798    -0.05030
C3998       C  0.89118863  0.96138363  0.88223108    -0.02140
C3999       C  0.89543175  0.93572206  0.88096599     0.02850
C4000       C  0.92172928  0.93781404  0.86570251    -0.05020
C4001       C  0.94419712  0.96658873  0.85275730    -0.02130
C4002       C  0.94086744  0.99262037  0.85571689     0.02840
C4003       C  0.86354855  0.95761045  0.89771494     0.37490
C4004       C  0.97187327  0.97038094  0.83705058     0.37480
C4005       C  0.96638165  0.52169917  0.84458216     0.35910
C4006       C  0.87217508  0.90712098  0.89544480     0.35910
N4007       N  0.98714603  0.54422076  0.83502679    -0.38910
N4008       N  0.85331659  0.88459138  0.90720099    -0.38910
N4009       N  0.99391813  0.97367529  0.82445274    -0.38360
N4010       N  0.84148818  0.95438130  0.91020368    -0.38360
C4011       C  0.92275206  0.73812617  0.88888830    -0.05030
C4012       C  0.92610002  0.72368445  0.91644177    -0.02140
C4013       C  0.92415181  0.69480899  0.91217537     0.02850
C4014       C  0.92041870  0.68072581  0.87992083    -0.05020
C4015       C  0.91367247  0.69371249  0.85316486    -0.02130
C4016       C  0.91458759  0.72191908  0.85783300     0.02840
C4017       C  0.93310599  0.73903353  0.94908943     0.37490
C4018       C  0.90609917  0.67877167  0.82024916     0.37480
C4019       C  0.90714960  0.73417772  0.83009388     0.35910
C4020       C  0.92590232  0.67991745  0.94137222     0.35910
N4021       N  0.90127772  0.74339745  0.80742127    -0.38910
N4022       N  0.92715766  0.66812083  0.96479318    -0.38910
N4023       N  0.90018222  0.66716340  0.79392716    -0.38360
N4024       N  0.93870395  0.75120879  0.97513069    -0.38360
C4025       C  0.58119262  0.99195826  0.90780131    -0.05030
C4026       C  0.58258762  0.96474591  0.90770082    -0.02140
C4027       C  0.55609690  0.93534700  0.90116591     0.02850
C4028       C  0.52662259  0.93190173  0.90042700    -0.05020
C4029       C  0.52541084  0.95936570  0.90459413    -0.02130
C4030       C  0.55241228  0.98862120  0.90284605     0.02840
C4031       C  0.61172548  0.96670129  0.91031929     0.37490
C4032       C  0.49697614  0.95877204  0.90984123     0.37480
C4033       C  0.55032427  0.51280780  0.88754897     0.35910
C4034       C  0.56032706  0.90974444  0.89203900     0.35790
N4035       N  0.54733595  0.53008338  0.87256942    -0.38910
N4036       N  0.56450130  0.89013338  0.88330594    -0.38910
N4037       N  0.97508835  0.95968769  0.91513993    -0.38360
N4038       N  0.63409175  0.96630284  0.91175312    -0.38360
C4039       C  0.83396004  0.74819578  0.87209950    -0.05030
C4040       C  0.82511656  0.73468648  0.83961111    -0.02140
C4041       C  0.79664522  0.70717004  0.83410047     0.02850
C4042       C  0.77439629  0.69531375  0.85975757    -0.05020
C4043       C  0.78220360  0.71090115  0.89134441    -0.02130
C4044       C  0.81234409  0.73517080  0.89813647     0.02840
C4045       C  0.84429010  0.74932337  0.81105936     0.37490
C4046       C  0.75955252  0.70334456  0.91729204     0.37480
C4047       C  0.82027874  0.74685419  0.93227727     0.35910
C4048       C  0.79058291  0.69176194  0.80147935     0.35910
N4049       N  0.82636816  0.75563982  0.95961959    -0.38910
N4050       N  0.78620407  0.67940731  0.77559603    -0.38910
N4051       N  0.74238182  0.69890185  0.93858928    -0.38360
N4052       N  0.85860852  0.76092273  0.78770385    -0.38360
C4053       C  0.87028462  0.85111281  0.96449756    -0.05030
C4054       C  0.83976835  0.83196787  0.97511479    -0.02140
C4055       C  0.83188279  0.83420443  0.00857388     0.02850
C4056       C  0.85432821  0.85619635  0.53096887    -0.05020
C4057       C  0.88410681  0.87694628  0.51925286    -0.02130
C4058       C  0.89183446  0.87479714  0.98636466     0.02840
C4059       C  0.81630122  0.81153145  0.95141052     0.37490
C4060       C  0.90655576  0.90259750  0.54028022     0.37480
C4061       C  0.92238095  0.89772817  0.97519867     0.35910
C4062       C  0.80031393  0.81559365  0.01934348     0.35910
N4063       N  0.94699661  0.91578492  0.46715641    -0.38910
N4064       N  0.77509841  0.80086981  0.02790483    -0.38910
N4065       N  0.92490020  0.92323000  0.55629400    -0.38360
N4066       N  0.79740131  0.79569607  0.93236982    -0.38360
C4067       C  0.86967817  0.84761006  0.78196485    -0.05030
C4068       C  0.87946960  0.84002152  0.75188172    -0.02140
C4069       C  0.86945030  0.84379836  0.72090163     0.02850
C4070       C  0.84913202  0.85507010  0.71935413    -0.05020
C4071       C  0.83761099  0.86052604  0.74943821    -0.02130
C4072       C  0.84805239  0.85728181  0.78035106     0.02840
C4073       C  0.89980634  0.82801237  0.75243737     0.37490
C4074       C  0.81484572  0.86961825  0.74891812     0.37480
C4075       C  0.83718969  0.86546630  0.81031722     0.35910
C4076       C  0.88135580  0.83713143  0.69074427     0.35910
N4077       N  0.82808114  0.87204492  0.83379668    -0.38910
N4078       N  0.89092132  0.83167943  0.66685571    -0.38910
N4079       N  0.79678538  0.87695503  0.74860528    -0.38360
N4080       N  0.91590007  0.81824625  0.75247484    -0.38360
loop_ 
_geom_bond_atom_site_label_1 
_geom_bond_atom_site_label_2 
_geom_bond_distance 
_geom_bond_site_symmetry_2 
_ccdc_geom_bond_type 
O1            C9   1.258       .  A
O1          Co21   1.892       .  S
O2           C10   1.249       .  A
O2          Co22   1.949       .  S
O3           C11   1.262       .  A
O3          Co23   2.035       .  S
O4           C12   1.282       .  A
O4          Co24   2.035       .  S
O5           C11   1.240       .  A
O5          Co22   1.911       .  S
O6           C12   1.268       .  A
O6          Co21   1.976       .  S
O7           C10   1.270       .  A
O7          Co24   2.042       .  S
O8            C9   1.293       .  A
O8          Co23   2.109       .  S
C9          C430   1.509       .  S
C10         C402   1.505       .  S
C11         C483   1.479       .  S
C12        C2498   1.516       .  S
O13          C26   1.259       .  A
O13         Co21   1.984       .  S
O14          C27   1.275       .  A
O14         Co22   2.018       .  S
O15          C28   1.266       .  A
O15         Co23   1.895       .  S
O16          C29   1.264       .  A
O16         Co24   1.956       .  S
O17          C29   1.273       .  A
O17         Co22   2.014       .  S
O18          C28   1.301       .  A
O18         Co21   2.110       .  S
O19          C26   1.252       .  A
O19         Co24   1.968       .  S
O20          C27   1.259       .  A
O20         Co23   1.950       .  S
Co21         O25   2.002       .  S
Co22         O25   1.993       .  S
Co23         O25   2.049       .  S
Co24         O25   2.047       .  S
C26         C413   1.493       .  S
C27         C469   1.497       .  S
C28         C497   1.506       .  S
C29         C441   1.492       .  S
O30          C38   1.255       .  A
O30         Co50   1.979       .  S
O31          C39   1.260       .  A
O31         Co51   1.957       .  S
O32          C40   1.305       .  A
O32       Co2092   2.139       .  S
O33          C41   1.269       .  A
O33         Co53   2.037       .  S
O34        C2080   1.250       .  A
O34         Co51   1.869       .  S
O35          C41   1.254       .  A
O35         Co50   1.921       .  S
O36          C39   1.280       .  A
O36         Co53   2.047       .  S
O37          C38   1.264       .  A
O37         Co52   2.041       .  S
C38         C332   1.516       .  S
C39        C1447   1.518   1_545  S
C40        O2074   1.250       .  A
C40         C371   1.512   1_655  S
C41         C360   1.493       .  S
O42          C55   1.278       .  A
O42         Co50   2.035       .  S
O43          C56   1.297       .  A
O43         Co51   2.092       .  S
O44          C57   1.263       .  A
O44         Co52   1.968       .  S
O45          C58   1.255       .  A
O45         Co53   1.983       .  S
O46          C58   1.259       .  A
O46         Co51   1.994       .  S
O47          C57   1.272       .  A
O47         Co50   2.002       .  S
O48          C55   1.261       .  A
O48         Co53   1.963       .  S
O49          C56   1.264       .  A
O49         Co52   1.888       .  S
Co50         O54   2.011       .  S
Co51         O54   1.977       .  S
Co52       O2072   2.139       .  S
Co52         O54   2.050       .  S
Co53         O54   2.078       .  S
C55         C385   1.506       .  S
C56         C315   1.476       .  S
C57         C444   1.504       .  S
C58         C343   1.511       .  S
O59          C67   1.295       .  A
O59         Co79   2.098       .  S
O60          C68   1.268       .  A
O60         Co80   2.013       .  S
O61          C69   1.257       .  A
O61         Co81   1.949       .  S
O62          C70   1.256       .  A
O62         Co82   1.965       .  S
O63          C69   1.287       .  A
O63         Co80   2.074       .  S
O64          C70   1.267       .  A
O64         Co79   2.031       .  S
O65          C68   1.260       .  A
O65         Co82   1.965       .  S
O66          C67   1.265       .  A
O66         Co81   1.905       .  S
C67        C2341   1.503   1_455  S
C68         C234   1.487       .  S
C69        C1279   1.505       .  S
C70         C399   1.493       .  S
O71          C84   1.265       .  A
O71         Co79   1.974       .  S
O72          C85   1.241       .  A
O72         Co80   1.952       .  S
O73          C86   1.290       .  A
O73         Co81   2.074       .  S
O74          C87   1.275       .  A
O74         Co82   2.027       .  S
O75          C87   1.256       .  A
O75         Co80   1.959       .  S
O76          C86   1.268       .  A
O76         Co79   1.902       .  S
O77          C84   1.278       .  A
O77         Co82   2.022       .  S
O78          C85   1.267       .  A
O78         Co81   2.038       .  S
Co79         O83   2.037       .  S
Co80         O83   2.044       .  S
Co81         O83   2.015       .  S
Co82         O83   2.031       .  S
C84         C273   1.507       .  S
C85         C248   1.486       .  S
C86         C416   1.496       .  S
C87         C287   1.493       .  S
O88          C96   1.267       .  A
O88        Co108   1.912       .  S
O89          C97   1.250       .  A
O89        Co109   1.950       .  S
O90          C98   1.267       .  A
O90        Co110   2.041       .  S
O91          C99   1.278       .  A
O91        Co111   2.022       .  S
O92          C98   1.244       .  A
O92        Co109   1.941       .  S
O93          C99   1.272       .  A
O93        Co108   1.983       .  S
O94          C97   1.277       .  A
O94        Co111   2.061       .  S
O95          C96   1.292       .  A
O95        Co110   2.080       .  S
C96         C203   1.489       .  S
C97        C1475   1.494   1_545  S
C98         C245   1.489       .  S
C99         C374   1.507       .  S
O100        C113   1.262       .  A
O100       Co108   2.034       .  S
O101        C114   1.276       .  A
O101       Co109   2.044       .  S
O102        C115   1.268       .  A
O102       Co110   1.886       .  S
O103        C116   1.255       .  A
O103       Co111   1.957       .  S
O104        C116   1.276       .  A
O104       Co109   2.034       .  S
O105        C115   1.296       .  A
O105       Co108   2.085       .  S
O106        C113   1.257       .  A
O106       Co111   1.971       .  S
O107        C114   1.264       .  A
O107       Co110   1.981       .  S
Co108       O112   2.041       .  S
Co109       O112   2.037       .  S
Co110       O112   2.018       .  S
Co111       O112   2.025       .  S
C113        C217   1.513       .  S
C114        C388   1.501       .  S
C115        C472   1.499       .  S
C116        C231   1.499       .  S
O117        C125   1.261       .  A
O117       Co137   2.021       .  S
O118        C126   1.275       .  A
O118       Co138   2.056       .  S
O119        C127   1.241       .  A
O119       Co139   1.893       .  S
O120        C128   1.265       .  A
O120       Co140   1.881       .  S
O121        C127   1.272       .  A
O121       Co138   2.054       .  S
O122        C128   1.301       .  A
O122       Co137   2.123       .  S
O123        C126   1.267       .  A
O123       Co140   1.990       .  S
O124        C125   1.245       .  A
O124       Co139   1.958       .  S
C125       C2215   1.491   1_455  S
C126        C220   1.538       .  S
C127        C318   1.483       .  S
C128        C262   1.495       .  S
O129        C142   1.265       .  A
O129       Co137   1.880       .  S
O130        C143   1.245       .  A
O130       Co138   1.938       .  S
O131        C144   1.275       .  A
O131       Co139   2.018       .  S
O132        C145   1.266       .  A
O132       Co140   2.046       .  S
O133        C145   1.244       .  A
O133       Co138   1.953       .  S
O134        C144   1.273       .  A
O134       Co137   2.000       .  S
O135        C142   1.302       .  A
O135       Co140   2.115       .  S
O136        C143   1.275       .  A
O136       Co139   2.061       .  S
Co137       O141   2.044       .  S
Co138       O141   2.058       .  S
Co139       O141   2.049       .  S
Co140       O141   2.039       .  S
C142        C206   1.495       .  S
C143        C276   1.492       .  S
C144        C329   1.529       .  S
C145        C189   1.494       .  S
O146        C154   1.249       .  A
O146       Co166   1.975       .  S
O147        C155   1.264       .  A
O147       Co167   1.965       .  S
O148        C156   1.274       .  A
O148       Co168   2.037       .  S
O149        C157   1.240       .  A
O149       Co169   1.966       .  S
O150        C156   1.246       .  A
O150       Co167   1.904       .  S
O151        C157   1.257       .  A
O151       Co166   2.000       .  S
O152        C155   1.273       .  A
O152       Co169   2.023       .  S
O153        C154   1.251       .  A
O153       Co168   1.993       .  S
C154        C304   1.507       .  S
C155        C346   1.501       .  S
C156        C486   1.463       .  S
C157       C1198   1.500       .  S
O158        C171   1.289       .  A
O158       Co166   2.044       .  S
O159        C172   1.272       .  A
O159       Co167   2.030       .  S
O160        C173   1.278       .  A
O160       Co168   1.906       .  S
O161        C174   1.267       .  A
O161       Co169   2.005       .  S
O162        C174   1.258       .  A
O162       Co167   1.970       .  S
O163        C173   1.299       .  A
O163       Co166   2.048       .  S
O164        C171   1.277       .  A
O164       Co169   1.939       .  S
O165        C172   1.255       .  A
O165       Co168   1.984       .  S
Co166       O170   2.227       .  S
Co167       O170   2.062       .  S
Co168       O170   1.975       .  S
Co169       O170   1.991       .  S
C171        C357   1.488       .  S
C172        C192   1.503       .  S
C173        C500   1.503       .  S
C174        C290   1.500       .  S
C175       C2165   1.491       .  S
C175        C176   1.404       .  A
C175        C180   1.420       .  A
C176        C177   1.406       .  A
C176       C2221   1.441       .  S
C177        C178   1.409       .  A
C177        C184   1.438   1_545  S
C178       C1177   1.500   1_545  S
C178        C179   1.418       .  A
C179        C180   1.415       .  A
C179        C182   1.450       .  S
C180        C183   1.452       .  S
C181       C2216   1.441   1_455  S
C181        N188   1.153       .  T
C182        N187   1.157       .  T
C183        N185   1.158       .  T
C184       N1206   1.152       .  T
N186       C1204   1.152       .  T
C189        C190   1.414       .  A
C189        C194   1.404       .  A
C190        C191   1.407       .  A
C190        C195   1.440       .  S
C191        C192   1.411       .  A
C191        C198   1.454       .  S
C192        C193   1.429       .  A
C193        C194   1.422       .  A
C193        C196   1.445       .  S
C194        C197   1.451       .  S
C195        N202   1.152       .  T
C196        N201   1.156       .  T
C197        N199   1.157       .  T
C198        N200   1.157       .  T
C203        C204   1.417       .  A
C203        C208   1.410       .  A
C204        C205   1.420       .  A
C204        C209   1.450       .  S
C205        C206   1.414       .  A
C205        C212   1.449       .  S
C206        C207   1.417       .  A
C207        C208   1.404       .  A
C207        C210   1.447       .  S
C208        C211   1.455       .  S
C209        N216   1.157       .  T
C210        N215   1.154       .  T
C211        N213   1.157       .  T
C212        N214   1.157       .  T
C217        C222   1.416       .  A
C217        C728   1.412       .  A
C218        C219   1.412   1_556  A
C218        C727   1.412       .  A
C218        C223   1.455       .  S
C219        C220   1.420       .  A
C219        C226   1.434       .  S
C220        C221   1.428       .  A
C221        C732   1.432   1_554  A
C221        C224   1.447       .  S
C222        C731   1.432       .  A
C222        C225   1.449       .  S
C223        N740   1.157       .  T
C224        N229   1.157       .  T
C225        N227   1.157       .  T
C226        N228   1.150       .  T
N230        C733   1.157       .  T
C231        C742   1.419       .  A
C231       C1256   1.405       .  A
C232        C233   1.412       .  A
C232        C741   1.419   1_554  A
C232        C237   1.451       .  S
C233       C1254   1.412       .  A
C233        C240   1.449       .  S
C234       C1253   1.412       .  A
C234        C745   1.417   1_554  A
C235        C236   1.409       .  A
C235        C744   1.417       .  A
C235        C238   1.448       .  S
C236       C1251   1.405       .  A
C236        C239   1.449       .  S
C237        N244   1.158       .  T
C238        N243   1.157       .  T
C239        N241   1.158       .  T
C240        N242   1.157       .  T
C245        C246   1.421       .  A
C245        C250   1.408       .  A
C246       C1267   1.408   1_545  A
C246       C1271   1.450   1_545  S
C247        C248   1.403       .  A
C247       C1266   1.408       .  A
C247        C254   1.451       .  S
C248       C1269   1.417       .  A
C249        C250   1.415       .  A
C249       C1268   1.417   1_545  A
C249        C252   1.448       .  S
C250        C253   1.449       .  S
C251       C1266   1.450       .  S
C251        N258   1.156       .  T
C252        N257   1.157       .  T
C253        N255   1.157       .  T
C254        N256   1.157       .  T
C259       C1089   1.505       .  S
C259        C260   1.407       .  A
C259        C264   1.423       .  A
C260        C261   1.398       .  A
C260        C265   1.441       .  S
C261        C262   1.414       .  A
C261        C268   1.453       .  S
C262        C263   1.419       .  A
C263        C264   1.422       .  A
C263        C266   1.451       .  S
C264        C267   1.449       .  S
C265        N272   1.156       .  T
C266        N271   1.157       .  T
C267       N1289   1.157   1_545  T
C268        N270   1.157       .  T
N269       C1287   1.157       .  T
C273        C274   1.413       .  A
C273        C278   1.424       .  A
C274        C275   1.406       .  A
C274        C279   1.456       .  S
C275        C276   1.418       .  A
C275        C282   1.447       .  S
C276        C277   1.412       .  A
C277        C278   1.422       .  A
C277        C280   1.451       .  S
C278        C281   1.448       .  S
C279        N286   1.157       .  T
C280        N285   1.157       .  T
C281        N283   1.157       .  T
C282        N284   1.158       .  T
C287        C288   1.407       .  A
C287        C292   1.420       .  A
C288        C289   1.407       .  A
C288        C293   1.451       .  S
C289        C290   1.425       .  A
C289        C296   1.453       .  S
C290        C291   1.412       .  A
C291        C292   1.420       .  A
C291        C294   1.449       .  S
C292        C295   1.450       .  S
C293        N300   1.156       .  T
C294        N299   1.157       .  T
C295        N297   1.157       .  T
C296        N298   1.157       .  T
C301       C2107   1.503       .  S
C301        C302   1.421       .  A
C301        C306   1.418       .  A
C302        C303   1.411       .  A
C302        C307   1.450       .  S
C303        C304   1.420       .  A
C303        C310   1.455       .  S
C304        C305   1.408       .  A
C305        C306   1.412       .  A
C305        C308   1.446       .  S
C306        C309   1.448       .  S
C307       N2354   1.156       .  T
C308        N313   1.157       .  T
C309        N311   1.157       .  T
C310        N312   1.158       .  T
N314       C2347   1.156       .  T
C315       C2356   1.412       .  A
C315       C2360   1.402       .  A
C316       C2355   1.412       .  A
C316        C827   1.414       .  A
C316        C321   1.450       .  S
C317        C318   1.419       .  A
C317        C826   1.414   1_554  A
C317        C324   1.445       .  S
C318        C319   1.419       .  A
C319        C830   1.396   1_554  A
C319        C322   1.453       .  S
C320       C2355   1.402       .  A
C320        C829   1.396       .  A
C320       C2363   1.447   1_455  S
C321       N2368   1.157       .  T
C322        N327   1.156       .  T
C323       C2360   1.447       .  S
C323        N325   1.156       .  T
C324        N326   1.157       .  T
N328       C2361   1.157       .  T
C329        C330   1.428   1_455  A
C329        C334   1.424       .  A
C330       C2371   1.415       .  A
C330       C2375   1.450       .  S
C331        C332   1.415       .  A
C331       C2370   1.415       .  A
C331        C338   1.456       .  S
C332       C2373   1.417       .  A
C333        C334   1.430       .  A
C333       C2372   1.417   1_455  A
C333        C336   1.450       .  S
C334        C337   1.449       .  S
C335       C2370   1.450       .  S
C335        N342   1.157       .  T
C336        N341   1.157       .  T
C337        N339   1.157       .  T
C338        N340   1.158       .  T
C343        C344   1.427       .  A
C343        C348   1.420       .  A
C344        C855   1.424       .  A
C344        C349   1.449       .  S
C345        C854   1.424       .  A
C345       C1366   1.412   1_545  A
C345        C352   1.449       .  S
C346        C347   1.412       .  A
C346       C1365   1.412       .  A
C347       C1878   1.402   1_554  A
C347        C350   1.450       .  S
C348       C1877   1.402   1_545  A
C348        C351   1.452       .  S
C349        N356   1.157       .  T
C350        N355   1.155       .  T
C351        N353   1.157   1_545  T
C352        N354   1.157       .  T
C357        C362   1.417       .  A
C357       C1378   1.406       .  A
C358        C359   1.394       .  A
C358       C1377   1.406   1_545  A
C358        C363   1.439       .  S
C359        C360   1.408       .  A
C359        C366   1.454       .  S
C360        C361   1.417   1_545  A
C361       C1382   1.426       .  A
C361        C364   1.447       .  S
C362       C1381   1.426       .  A
C362        C365   1.448       .  S
C363        N370   1.154       .  T
C364        N369   1.157       .  T
C365        N367   1.157       .  T
C366        N368   1.155       .  T
C371        C372   1.429       .  A
C371        C376   1.411       .  A
C372        C373   1.411       .  A
C372        C377   1.451       .  S
C373        C374   1.418       .  A
C373        C380   1.458       .  S
C374        C375   1.420       .  A
C375        C376   1.414       .  A
C375        C378   1.445       .  S
C376        C379   1.448       .  S
C377        N384   1.156   1_455  T
C378        N383   1.155       .  T
C379        N381   1.156       .  T
C380        N382   1.158       .  T
C385        C386   1.421       .  A
C385        C390   1.415       .  A
C386        C387   1.419       .  A
C386        C391   1.450       .  S
C387        C388   1.412       .  A
C387        C394   1.451       .  S
C388        C389   1.418       .  A
C389        C390   1.416       .  A
C389        C392   1.447       .  S
C390        C393   1.453       .  S
C391        N398   1.157       .  T
C392        N397   1.156       .  T
C393        N395   1.158       .  T
C394        N396   1.157       .  T
C399       C2440   1.406   1_455  A
C399        C914   1.414       .  A
C400        C401   1.416       .  A
C400       C2439   1.406       .  A
C400        C405   1.450       .  S
C401        C912   1.427   1_554  A
C401        C408   1.452       .  S
C402        C911   1.427       .  A
C402       C2443   1.412       .  A
C403        C404   1.413       .  A
C403       C2442   1.412   1_455  A
C403        C406   1.447       .  S
C404        C909   1.414       .  A
C404        C407   1.449       .  S
C405        N412   1.157       .  T
C406        N411   1.157       .  T
C407        N409   1.156       .  T
C408        N410   1.158       .  T
C413        C414   1.418       .  A
C413       C2458   1.414       .  A
C414       C2455   1.412       .  A
C414        C419   1.449       .  S
C415        C416   1.418       .  A
C415       C2454   1.412   1_455  A
C415        C422   1.454       .  S
C416        C417   1.421       .  A
C417        C418   1.406       .  A
C417        C420   1.450       .  S
C418       C2453   1.414   1_455  A
C418        C421   1.456       .  S
C419        N426   1.156       .  T
C420        N425   1.157       .  T
C421        N423   1.157       .  T
C422        N424   1.158   1_455  T
C427       C1059   1.518       .  S
C427        C428   1.424       .  A
C427        C432   1.427       .  A
C428        C429   1.420       .  A
C428        C433   1.452       .  S
C429        C430   1.419       .  A
C429        C436   1.451       .  S
C430        C431   1.419       .  A
C431        C432   1.411       .  A
C431        C434   1.457       .  S
C432       C1455   1.451       .  S
C433        N440   1.157       .  T
C434        N439   1.157       .  T
C435       C1452   1.451   1_545  S
C435        N437   1.157       .  T
C436        N438   1.157       .  T
C441        C442   1.414       .  A
C441        C446   1.413       .  A
C442        C443   1.414       .  A
C442        C447   1.453       .  S
C443        C444   1.424       .  A
C443        C450   1.452       .  S
C444        C445   1.422       .  A
C445        C446   1.407       .  A
C445        C448   1.455       .  S
C446        C449   1.448       .  S
C447        N454   1.157       .  T
C448        N453   1.158       .  T
C449        N451   1.155       .  T
C450        N452   1.158       .  T
C455       C1117   1.494       .  S
C455        C456   1.413       .  A
C455        C460   1.406       .  A
C456        C457   1.417       .  A
C456        C461   1.443       .  S
C457        C458   1.422       .  A
C457        C464   1.450       .  S
C458       C2052   1.516   1_455  S
C458        C459   1.424       .  A
C459        C460   1.409       .  A
C459        C462   1.446   1_455  S
C460       C1483   1.444       .  S
C461        N468   1.154       .  T
C462       N2507   1.156       .  T
C463       C1480   1.444   1_545  S
C463        N465   1.156       .  T
C464        N466   1.157       .  T
N467       C2502   1.156       .  T
C469        C470   1.420       .  A
C469        C474   1.418       .  A
C470        C471   1.410       .  A
C470        C475   1.451       .  S
C471        C472   1.420       .  A
C471        C478   1.454       .  S
C472        C473   1.419       .  A
C473        C474   1.407       .  A
C473        C476   1.450       .  S
C474        C477   1.455       .  S
C475        N482   1.157       .  T
C476        N481   1.156       .  T
C477        N479   1.158       .  T
C478        N480   1.158       .  T
C483        C484   1.411       .  A
C483        C488   1.417       .  A
C484        C485   1.417       .  A
C484        C489   1.449       .  S
C485        C996   1.415       .  A
C485        C492   1.450       .  S
C486        C487   1.412       .  A
C486        C995   1.415       .  A
C487        C998   1.392   1_554  A
C487        C490   1.457       .  S
C488        C997   1.392       .  A
C488        C491   1.456       .  S
C489        N496   1.158       .  T
C490        N495   1.157       .  T
C491       N1003   1.156       .  T
C492        N494   1.157       .  T
N493       C1001   1.156       .  T
C497        C498   1.415       .  A
C497        C502   1.422       .  A
C498        C499   1.416       .  A
C498        C503   1.448       .  S
C499        C500   1.421       .  A
C499        C506   1.452       .  S
C500        C501   1.416       .  A
C501        C502   1.414       .  A
C501        C504   1.454       .  S
C502        C505   1.451       .  S
C503        N510   1.156       .  T
C504        N509   1.158       .  T
C505        N507   1.157       .  T
C506        N508   1.157       .  T
O511        C519   1.258       .  A
O511       Co531   1.892       .  S
O512        C520   1.249       .  A
O512       Co532   1.949       .  S
O513        C521   1.262       .  A
O513       Co533   2.035       .  S
O514        C522   1.282       .  A
O514       Co534   2.035       .  S
O515        C521   1.240       .  A
O515       Co532   1.911       .  S
O516        C522   1.268       .  A
O516       Co531   1.976       .  S
O517        C520   1.270       .  A
O517       Co534   2.042       .  S
O518        C519   1.293       .  A
O518       Co533   2.109       .  S
C519        C940   1.509       .  S
C520        C912   1.505       .  S
C521        C993   1.479       .  S
C522       C3008   1.516       .  S
O523        C536   1.259       .  A
O523       Co531   1.984       .  S
O524        C537   1.275       .  A
O524       Co532   2.018       .  S
O525        C538   1.266       .  A
O525       Co533   1.895       .  S
O526        C539   1.264       .  A
O526       Co534   1.956       .  S
O527        C539   1.273       .  A
O527       Co532   2.014       .  S
O528        C538   1.301       .  A
O528       Co531   2.110       .  S
O529        C536   1.252       .  A
O529       Co534   1.968       .  S
O530        C537   1.259       .  A
O530       Co533   1.950       .  S
Co531       O535   2.002       .  S
Co532       O535   1.993       .  S
Co533       O535   2.049       .  S
Co534       O535   2.047       .  S
C536        C923   1.493       .  S
C537        C979   1.497       .  S
C538       C1007   1.506       .  S
C539        C951   1.492       .  S
O540        C548   1.255       .  A
O540       Co560   1.979       .  S
O541        C549   1.260       .  A
O541       Co561   1.957       .  S
O542        C550   1.305       .  A
O542      Co2602   2.139       .  S
O543        C551   1.269       .  A
O543       Co563   2.037       .  S
O544       C2590   1.250       .  A
O544       Co561   1.869       .  S
O545        C551   1.254       .  A
O545       Co560   1.921       .  S
O546        C549   1.280       .  A
O546       Co563   2.047       .  S
O547        C548   1.264       .  A
O547       Co562   2.041       .  S
C548        C842   1.516       .  S
C549       C1957   1.518   1_545  S
C550       O2584   1.250       .  A
C550        C881   1.512   1_655  S
C551        C870   1.493       .  S
O552        C565   1.278       .  A
O552       Co560   2.035       .  S
O553        C566   1.297       .  A
O553       Co561   2.092       .  S
O554        C567   1.263       .  A
O554       Co562   1.968       .  S
O555        C568   1.255       .  A
O555       Co563   1.983       .  S
O556        C568   1.259       .  A
O556       Co561   1.994       .  S
O557        C567   1.272       .  A
O557       Co560   2.002       .  S
O558        C565   1.261       .  A
O558       Co563   1.963       .  S
O559        C566   1.264       .  A
O559       Co562   1.888       .  S
Co560       O564   2.011       .  S
Co561       O564   1.977       .  S
Co562      O2582   2.139       .  S
Co562       O564   2.050       .  S
Co563       O564   2.078       .  S
C565        C895   1.506       .  S
C566        C825   1.476       .  S
C567        C954   1.504       .  S
C568        C853   1.511       .  S
O569        C577   1.295       .  A
O569       Co589   2.098       .  S
O570        C578   1.268       .  A
O570       Co590   2.013       .  S
O571        C579   1.257       .  A
O571       Co591   1.949       .  S
O572        C580   1.256       .  A
O572       Co592   1.965       .  S
O573        C579   1.287       .  A
O573       Co590   2.074       .  S
O574        C580   1.267       .  A
O574       Co589   2.031       .  S
O575        C578   1.260       .  A
O575       Co592   1.965       .  S
O576        C577   1.265       .  A
O576       Co591   1.905       .  S
C577       C2851   1.503   1_455  S
C578        C744   1.487       .  S
C579       C1789   1.505       .  S
C580        C909   1.493       .  S
O581        C594   1.265       .  A
O581       Co589   1.974       .  S
O582        C595   1.241       .  A
O582       Co590   1.952       .  S
O583        C596   1.290       .  A
O583       Co591   2.074       .  S
O584        C597   1.275       .  A
O584       Co592   2.027       .  S
O585        C597   1.256       .  A
O585       Co590   1.959       .  S
O586        C596   1.268       .  A
O586       Co589   1.902       .  S
O587        C594   1.278       .  A
O587       Co592   2.022       .  S
O588        C595   1.267       .  A
O588       Co591   2.038       .  S
Co589       O593   2.037       .  S
Co590       O593   2.044       .  S
Co591       O593   2.015       .  S
Co592       O593   2.031       .  S
C594        C783   1.507       .  S
C595        C758   1.486       .  S
C596        C926   1.496       .  S
C597        C797   1.493       .  S
O598        C606   1.267       .  A
O598       Co618   1.912       .  S
O599        C607   1.250       .  A
O599       Co619   1.950       .  S
O600        C608   1.267       .  A
O600       Co620   2.041       .  S
O601        C609   1.278       .  A
O601       Co621   2.022       .  S
O602        C608   1.244       .  A
O602       Co619   1.941       .  S
O603        C609   1.272       .  A
O603       Co618   1.983       .  S
O604        C607   1.277       .  A
O604       Co621   2.061       .  S
O605        C606   1.292       .  A
O605       Co620   2.080       .  S
C606        C713   1.489       .  S
C607       C1985   1.494   1_545  S
C608        C755   1.489       .  S
C609        C884   1.507       .  S
O610        C623   1.262       .  A
O610       Co618   2.034       .  S
O611        C624   1.276       .  A
O611       Co619   2.044       .  S
O612        C625   1.268       .  A
O612       Co620   1.886       .  S
O613        C626   1.255       .  A
O613       Co621   1.957       .  S
O614        C626   1.276       .  A
O614       Co619   2.034       .  S
O615        C625   1.296       .  A
O615       Co618   2.085       .  S
O616        C623   1.257       .  A
O616       Co621   1.971       .  S
O617        C624   1.264       .  A
O617       Co620   1.981       .  S
Co618       O622   2.041       .  S
Co619       O622   2.037       .  S
Co620       O622   2.018       .  S
Co621       O622   2.025       .  S
C623        C727   1.513       .  S
C624        C898   1.501       .  S
C625        C982   1.499       .  S
C626        C741   1.499       .  S
O627        C635   1.261       .  A
O627       Co647   2.021       .  S
O628        C636   1.275       .  A
O628       Co648   2.056       .  S
O629        C637   1.241       .  A
O629       Co649   1.893       .  S
O630        C638   1.265       .  A
O630       Co650   1.881       .  S
O631        C637   1.272       .  A
O631       Co648   2.054       .  S
O632        C638   1.301       .  A
O632       Co647   2.123       .  S
O633        C636   1.267       .  A
O633       Co650   1.990       .  S
O634        C635   1.245       .  A
O634       Co649   1.958       .  S
C635       C2725   1.491   1_455  S
C636        C730   1.538       .  S
C637        C828   1.483       .  S
C638        C772   1.495       .  S
O639        C652   1.265       .  A
O639       Co647   1.880       .  S
O640        C653   1.245       .  A
O640       Co648   1.938       .  S
O641        C654   1.275       .  A
O641       Co649   2.018       .  S
O642        C655   1.266       .  A
O642       Co650   2.046       .  S
O643        C655   1.244       .  A
O643       Co648   1.953       .  S
O644        C654   1.273       .  A
O644       Co647   2.000       .  S
O645        C652   1.302       .  A
O645       Co650   2.115       .  S
O646        C653   1.275       .  A
O646       Co649   2.061       .  S
Co647       O651   2.044       .  S
Co648       O651   2.058       .  S
Co649       O651   2.049       .  S
Co650       O651   2.039       .  S
C652        C716   1.495       .  S
C653        C786   1.492       .  S
C654        C839   1.529       .  S
C655        C699   1.494       .  S
O656        C664   1.249       .  A
O656       Co676   1.975       .  S
O657        C665   1.264       .  A
O657       Co677   1.965       .  S
O658        C666   1.274       .  A
O658       Co678   2.037       .  S
O659        C667   1.240       .  A
O659       Co679   1.966       .  S
O660        C666   1.246       .  A
O660       Co677   1.904       .  S
O661        C667   1.257       .  A
O661       Co676   2.000       .  S
O662        C665   1.273       .  A
O662       Co679   2.023       .  S
O663        C664   1.251       .  A
O663       Co678   1.993       .  S
C664        C814   1.507       .  S
C665        C856   1.501       .  S
C666        C996   1.463       .  S
C667       C1708   1.500       .  S
O668        C681   1.289       .  A
O668       Co676   2.044       .  S
O669        C682   1.272       .  A
O669       Co677   2.030       .  S
O670        C683   1.278       .  A
O670       Co678   1.906       .  S
O671        C684   1.267       .  A
O671       Co679   2.005       .  S
O672        C684   1.258       .  A
O672       Co677   1.970       .  S
O673        C683   1.299       .  A
O673       Co676   2.048       .  S
O674        C681   1.277       .  A
O674       Co679   1.939       .  S
O675        C682   1.255       .  A
O675       Co678   1.984       .  S
Co676       O680   2.227       .  S
Co677       O680   2.062       .  S
Co678       O680   1.975       .  S
Co679       O680   1.991       .  S
C681        C867   1.488       .  S
C682        C702   1.503       .  S
C683       C1010   1.503       .  S
C684        C800   1.500       .  S
C685       C2675   1.491       .  S
C685        C686   1.404       .  A
C685        C690   1.420       .  A
C686        C687   1.406       .  A
C686       C2731   1.441       .  S
C687        C688   1.409       .  A
C687        C694   1.438   1_545  S
C688       C1687   1.500   1_545  S
C688        C689   1.418       .  A
C689        C690   1.415       .  A
C689        C692   1.450       .  S
C690        C693   1.452       .  S
C691       C2726   1.441   1_455  S
C691        N698   1.153       .  T
C692        N697   1.157       .  T
C693        N695   1.158       .  T
C694       N1716   1.152       .  T
N696       C1714   1.152       .  T
C699        C700   1.414       .  A
C699        C704   1.404       .  A
C700        C701   1.407       .  A
C700        C705   1.440       .  S
C701        C702   1.411       .  A
C701        C708   1.454       .  S
C702        C703   1.429       .  A
C703        C704   1.422       .  A
C703        C706   1.445       .  S
C704        C707   1.451       .  S
C705        N712   1.152       .  T
C706        N711   1.156       .  T
C707        N709   1.157       .  T
C708        N710   1.157       .  T
C713        C714   1.417       .  A
C713        C718   1.410       .  A
C714        C715   1.420       .  A
C714        C719   1.450       .  S
C715        C716   1.414       .  A
C715        C722   1.449       .  S
C716        C717   1.417       .  A
C717        C718   1.404       .  A
C717        C720   1.447       .  S
C718        C721   1.455       .  S
C719        N726   1.157       .  T
C720        N725   1.154       .  T
C721        N723   1.157       .  T
C722        N724   1.157       .  T
C727        C732   1.416       .  A
C728        C729   1.412       .  A
C728        C733   1.455       .  S
C729        C730   1.420       .  A
C729        C736   1.434       .  S
C730        C731   1.428       .  A
C731        C734   1.447       .  S
C732        C735   1.449       .  S
C734        N739   1.157       .  T
C735        N737   1.157       .  T
C736        N738   1.150       .  T
C741       C1766   1.405       .  A
C742        C743   1.412       .  A
C742        C747   1.451       .  S
C743       C1764   1.412       .  A
C743        C750   1.449       .  S
C744       C1763   1.412       .  A
C745        C746   1.409       .  A
C745        C748   1.448       .  S
C746       C1761   1.405       .  A
C746        C749   1.449       .  S
C747        N754   1.158       .  T
C748        N753   1.157       .  T
C749        N751   1.158       .  T
C750        N752   1.157       .  T
C755        C756   1.421       .  A
C755        C760   1.408       .  A
C756       C1777   1.408   1_545  A
C756       C1781   1.450   1_545  S
C757       C1776   1.408       .  A
C757        C758   1.403       .  A
C757        C764   1.451       .  S
C758       C1779   1.417       .  A
C759       C1778   1.417   1_545  A
C759        C760   1.415       .  A
C759        C762   1.448       .  S
C760        C763   1.449       .  S
C761       C1776   1.450       .  S
C761        N768   1.156       .  T
C762        N767   1.157       .  T
C763        N765   1.157       .  T
C764        N766   1.157       .  T
C769       C1599   1.505       .  S
C769        C770   1.407       .  A
C769        C774   1.423       .  A
C770        C771   1.398       .  A
C770        C775   1.441       .  S
C771        C772   1.414       .  A
C771        C778   1.453       .  S
C772        C773   1.419       .  A
C773        C774   1.422       .  A
C773        C776   1.451       .  S
C774        C777   1.449       .  S
C775        N782   1.156       .  T
C776        N781   1.157       .  T
C777       N1799   1.157   1_545  T
C778        N780   1.157       .  T
N779       C1797   1.157       .  T
C783        C784   1.413       .  A
C783        C788   1.424       .  A
C784        C785   1.406       .  A
C784        C789   1.456       .  S
C785        C786   1.418       .  A
C785        C792   1.447       .  S
C786        C787   1.412       .  A
C787        C788   1.422       .  A
C787        C790   1.451       .  S
C788        C791   1.448       .  S
C789        N796   1.157       .  T
C790        N795   1.157       .  T
C791        N793   1.157       .  T
C792        N794   1.158       .  T
C797        C798   1.407       .  A
C797        C802   1.420       .  A
C798        C799   1.407       .  A
C798        C803   1.451       .  S
C799        C800   1.425       .  A
C799        C806   1.453       .  S
C800        C801   1.412       .  A
C801        C802   1.420       .  A
C801        C804   1.449       .  S
C802        C805   1.450       .  S
C803        N810   1.156       .  T
C804        N809   1.157       .  T
C805        N807   1.157       .  T
C806        N808   1.157       .  T
C811       C2617   1.503       .  S
C811        C812   1.421       .  A
C811        C816   1.418       .  A
C812        C813   1.411       .  A
C812        C817   1.450       .  S
C813        C814   1.420       .  A
C813        C820   1.455       .  S
C814        C815   1.408       .  A
C815        C816   1.412       .  A
C815        C818   1.446       .  S
C816        C819   1.448       .  S
C817       N2864   1.156       .  T
C818        N823   1.157       .  T
C819        N821   1.157       .  T
C820        N822   1.158       .  T
N824       C2857   1.156       .  T
C825       C2866   1.412       .  A
C825       C2870   1.402       .  A
C826       C2865   1.412       .  A
C826        C831   1.450       .  S
C827        C828   1.419       .  A
C827        C834   1.445       .  S
C828        C829   1.419       .  A
C829        C832   1.453       .  S
C830       C2865   1.402       .  A
C830       C2873   1.447   1_455  S
C831       N2878   1.157       .  T
C832        N837   1.156       .  T
C833       C2870   1.447       .  S
C833        N835   1.156       .  T
C834        N836   1.157       .  T
N838       C2871   1.157       .  T
C839        C840   1.428   1_455  A
C839        C844   1.424       .  A
C840       C2881   1.415       .  A
C840       C2885   1.450       .  S
C841       C2880   1.415       .  A
C841        C842   1.415       .  A
C841        C848   1.456       .  S
C842       C2883   1.417       .  A
C843       C2882   1.417   1_455  A
C843        C844   1.430       .  A
C843        C846   1.450       .  S
C844        C847   1.449       .  S
C845       C2880   1.450       .  S
C845        N852   1.157       .  T
C846        N851   1.157       .  T
C847        N849   1.157       .  T
C848        N850   1.158       .  T
C853        C854   1.427   1_556  A
C853        C858   1.420       .  A
C854        C859   1.449   1_554  S
C855       C1876   1.412   1_545  A
C855        C862   1.449       .  S
C856       C1875   1.412       .  A
C856        C857   1.412       .  A
C857       C1368   1.402       .  A
C857        C860   1.450       .  S
C858       C1367   1.402   1_546  A
C858        C861   1.452       .  S
C859        N866   1.157       .  T
C860        N865   1.155       .  T
C861        N863   1.157   1_545  T
C862        N864   1.157       .  T
C867       C1888   1.406       .  A
C867        C872   1.417       .  A
C868       C1887   1.406   1_545  A
C868        C869   1.394       .  A
C868        C873   1.439       .  S
C869        C870   1.408       .  A
C869        C876   1.454       .  S
C870        C871   1.417   1_545  A
C871       C1892   1.426       .  A
C871        C874   1.447       .  S
C872       C1891   1.426       .  A
C872        C875   1.448       .  S
C873        N880   1.154       .  T
C874        N879   1.157       .  T
C875        N877   1.157       .  T
C876        N878   1.155       .  T
C881        C882   1.429       .  A
C881        C886   1.411       .  A
C882        C883   1.411       .  A
C882        C887   1.451       .  S
C883        C884   1.418       .  A
C883        C890   1.458       .  S
C884        C885   1.420       .  A
C885        C886   1.414       .  A
C885        C888   1.445       .  S
C886        C889   1.448       .  S
C887        N894   1.156   1_455  T
C888        N893   1.155       .  T
C889        N891   1.156       .  T
C890        N892   1.158       .  T
C895        C896   1.421       .  A
C895        C900   1.415       .  A
C896        C897   1.419       .  A
C896        C901   1.450       .  S
C897        C898   1.412       .  A
C897        C904   1.451       .  S
C898        C899   1.418       .  A
C899        C900   1.416       .  A
C899        C902   1.447       .  S
C900        C903   1.453       .  S
C901        N908   1.157       .  T
C902        N907   1.156       .  T
C903        N905   1.158       .  T
C904        N906   1.157       .  T
C909       C2950   1.406   1_455  A
C910       C2949   1.406       .  A
C910        C911   1.416       .  A
C910        C915   1.450       .  S
C911        C918   1.452       .  S
C912       C2953   1.412       .  A
C913       C2952   1.412   1_455  A
C913        C914   1.413   1_556  A
C913        C916   1.447       .  S
C914        C917   1.449       .  S
C915        N922   1.157       .  T
C916        N921   1.157       .  T
C917        N919   1.156       .  T
C918        N920   1.158       .  T
C923        C924   1.418       .  A
C923       C2968   1.414       .  A
C924       C2965   1.412       .  A
C924        C929   1.449       .  S
C925       C2964   1.412   1_455  A
C925        C926   1.418       .  A
C925        C932   1.454       .  S
C926        C927   1.421       .  A
C927        C928   1.406       .  A
C927        C930   1.450       .  S
C928       C2963   1.414   1_455  A
C928        C931   1.456       .  S
C929        N936   1.156       .  T
C930        N935   1.157       .  T
C931        N933   1.157       .  T
C932        N934   1.158   1_455  T
C937       C1569   1.518       .  S
C937        C938   1.424       .  A
C937        C942   1.427       .  A
C938        C939   1.420       .  A
C938        C943   1.452       .  S
C939        C940   1.419       .  A
C939        C946   1.451       .  S
C940        C941   1.419       .  A
C941        C942   1.411       .  A
C941        C944   1.457       .  S
C942       C1965   1.451       .  S
C943        N950   1.157       .  T
C944        N949   1.157       .  T
C945       C1962   1.451   1_545  S
C945        N947   1.157       .  T
C946        N948   1.157       .  T
C951        C952   1.414       .  A
C951        C956   1.413       .  A
C952        C953   1.414       .  A
C952        C957   1.453       .  S
C953        C954   1.424       .  A
C953        C960   1.452       .  S
C954        C955   1.422       .  A
C955        C956   1.407       .  A
C955        C958   1.455       .  S
C956        C959   1.448       .  S
C957        N964   1.157       .  T
C958        N963   1.158       .  T
C959        N961   1.155       .  T
C960        N962   1.158       .  T
C965       C1627   1.494       .  S
C965        C966   1.413       .  A
C965        C970   1.406       .  A
C966        C967   1.417       .  A
C966        C971   1.443       .  S
C967        C968   1.422       .  A
C967        C974   1.450       .  S
C968       C2562   1.516   1_455  S
C968        C969   1.424       .  A
C969        C970   1.409       .  A
C969        C972   1.446   1_455  S
C970       C1993   1.444       .  S
C971        N978   1.154       .  T
C972       N3017   1.156       .  T
C973       C1990   1.444   1_545  S
C973        N975   1.156       .  T
C974        N976   1.157       .  T
N977       C3012   1.156       .  T
C979        C980   1.420       .  A
C979        C984   1.418       .  A
C980        C981   1.410       .  A
C980        C985   1.451       .  S
C981        C982   1.420       .  A
C981        C988   1.454       .  S
C982        C983   1.419       .  A
C983        C984   1.407       .  A
C983        C986   1.450       .  S
C984        C987   1.455       .  S
C985        N992   1.157       .  T
C986        N991   1.156       .  T
C987        N989   1.158       .  T
C988        N990   1.158       .  T
C993        C994   1.411       .  A
C993        C998   1.417       .  A
C994        C995   1.417   1_556  A
C994        C999   1.449       .  S
C995       C1002   1.450       .  S
C996        C997   1.412       .  A
C997       C1000   1.457       .  S
C998       C1001   1.456       .  S
C999       N1006   1.158       .  T
C1000      N1005   1.157       .  T
C1002      N1004   1.157       .  T
C1007      C1008   1.415       .  A
C1007      C1012   1.422       .  A
C1008      C1009   1.416       .  A
C1008      C1013   1.448       .  S
C1009      C1010   1.421       .  A
C1009      C1016   1.452       .  S
C1010      C1011   1.416       .  A
C1011      C1012   1.414       .  A
C1011      C1014   1.454       .  S
C1012      C1015   1.451       .  S
C1013      N1020   1.156       .  T
C1014      N1019   1.158       .  T
C1015      N1017   1.157       .  T
C1016      N1018   1.157       .  T
O1021      C1029   1.258       .  A
O1021     Co1041   1.892       .  S
O1022      C1030   1.249       .  A
O1022     Co1042   1.949       .  S
O1023      C1031   1.262       .  A
O1023     Co1043   2.035       .  S
O1024      C1032   1.282       .  A
O1024     Co1044   2.035       .  S
O1025      C1031   1.240       .  A
O1025     Co1042   1.911       .  S
O1026      C1032   1.268       .  A
O1026     Co1041   1.976       .  S
O1027      C1030   1.270       .  A
O1027     Co1044   2.042       .  S
O1028      C1029   1.293       .  A
O1028     Co1043   2.109       .  S
C1029      C1450   1.509       .  S
C1030      C1422   1.505       .  S
C1031      C1503   1.479       .  S
C1032      C3518   1.516       .  S
O1033      C1046   1.259       .  A
O1033     Co1041   1.984       .  S
O1034      C1047   1.275       .  A
O1034     Co1042   2.018       .  S
O1035      C1048   1.266       .  A
O1035     Co1043   1.895       .  S
O1036      C1049   1.264       .  A
O1036     Co1044   1.956       .  S
O1037      C1049   1.273       .  A
O1037     Co1042   2.014       .  S
O1038      C1048   1.301       .  A
O1038     Co1041   2.110       .  S
O1039      C1046   1.252       .  A
O1039     Co1044   1.968       .  S
O1040      C1047   1.259       .  A
O1040     Co1043   1.950       .  S
Co1041     O1045   2.002       .  S
Co1042     O1045   1.993       .  S
Co1043     O1045   2.049       .  S
Co1044     O1045   2.047       .  S
C1046      C1433   1.493       .  S
C1047      C1489   1.497       .  S
C1048      C1517   1.506       .  S
C1049      C1461   1.492       .  S
O1050      C1058   1.255       .  A
O1050     Co1070   1.979       .  S
O1051      C1059   1.260       .  A
O1051     Co1071   1.957       .  S
O1052      C1060   1.305       .  A
O1052     Co3112   2.139       .  S
O1053      C1061   1.269       .  A
O1053     Co1073   2.037       .  S
O1054      C3100   1.250       .  A
O1054     Co1071   1.869       .  S
O1055      C1061   1.254       .  A
O1055     Co1070   1.921       .  S
O1056      C1059   1.280       .  A
O1056     Co1073   2.047       .  S
O1057      C1058   1.264       .  A
O1057     Co1072   2.041       .  S
C1058      C1352   1.516       .  S
C1060      O3094   1.250       .  A
C1060      C1391   1.512   1_655  S
C1061      C1380   1.493       .  S
O1062      C1075   1.278       .  A
O1062     Co1070   2.035       .  S
O1063      C1076   1.297       .  A
O1063     Co1071   2.092       .  S
O1064      C1077   1.263       .  A
O1064     Co1072   1.968       .  S
O1065      C1078   1.255       .  A
O1065     Co1073   1.983       .  S
O1066      C1078   1.259       .  A
O1066     Co1071   1.994       .  S
O1067      C1077   1.272       .  A
O1067     Co1070   2.002       .  S
O1068      C1075   1.261       .  A
O1068     Co1073   1.963       .  S
O1069      C1076   1.264       .  A
O1069     Co1072   1.888       .  S
Co1070     O1074   2.011       .  S
Co1071     O1074   1.977       .  S
Co1072     O3092   2.139       .  S
Co1072     O1074   2.050       .  S
Co1073     O1074   2.078       .  S
C1075      C1405   1.506       .  S
C1076      C1335   1.476       .  S
C1077      C1464   1.504       .  S
C1078      C1363   1.511       .  S
O1079      C1087   1.295       .  A
O1079     Co1099   2.098       .  S
O1080      C1088   1.268       .  A
O1080     Co1100   2.013       .  S
O1081      C1089   1.257   1_565  A
O1081     Co1101   1.949       .  S
O1082      C1090   1.256       .  A
O1082     Co1102   1.965       .  S
O1083      C1089   1.287       .  A
O1083     Co1100   2.074   1_545  S
O1084      C1090   1.267       .  A
O1084     Co1099   2.031       .  S
O1085      C1088   1.260       .  A
O1085     Co1102   1.965       .  S
O1086      C1087   1.265       .  A
O1086     Co1101   1.905       .  S
C1087      C3361   1.503   1_455  S
C1088      C1254   1.487   1_565  S
C1090      C1419   1.493       .  S
O1091      C1104   1.265       .  A
O1091     Co1099   1.974       .  S
O1092      C1105   1.241       .  A
O1092     Co1100   1.952       .  S
O1093      C1106   1.290       .  A
O1093     Co1101   2.074       .  S
O1094      C1107   1.275       .  A
O1094     Co1102   2.027       .  S
O1095      C1107   1.256       .  A
O1095     Co1100   1.959       .  S
O1096      C1106   1.268       .  A
O1096     Co1099   1.902       .  S
O1097      C1104   1.278       .  A
O1097     Co1102   2.022       .  S
O1098      C1105   1.267       .  A
O1098     Co1101   2.038       .  S
Co1099     O1103   2.037       .  S
Co1100     O1103   2.044       .  S
Co1101     O1103   2.015       .  S
Co1102     O1103   2.031       .  S
C1104      C1293   1.507       .  S
C1105      C1268   1.486       .  S
C1106      C1436   1.496       .  S
C1107      C1307   1.493       .  S
O1108      C1116   1.267       .  A
O1108     Co1128   1.912       .  S
O1109      C1117   1.250       .  A
O1109     Co1129   1.950       .  S
O1110      C1118   1.267       .  A
O1110     Co1130   2.041       .  S
O1111      C1119   1.278       .  A
O1111     Co1131   2.022       .  S
O1112      C1118   1.244       .  A
O1112     Co1129   1.941       .  S
O1113      C1119   1.272       .  A
O1113     Co1128   1.983       .  S
O1114      C1117   1.277       .  A
O1114     Co1131   2.061       .  S
O1115      C1116   1.292       .  A
O1115     Co1130   2.080       .  S
C1116      C1223   1.489       .  S
C1118      C1265   1.489       .  S
C1119      C1394   1.507       .  S
O1120      C1133   1.262       .  A
O1120     Co1128   2.034       .  S
O1121      C1134   1.276       .  A
O1121     Co1129   2.044       .  S
O1122      C1135   1.268       .  A
O1122     Co1130   1.886       .  S
O1123      C1136   1.255       .  A
O1123     Co1131   1.957       .  S
O1124      C1136   1.276       .  A
O1124     Co1129   2.034       .  S
O1125      C1135   1.296       .  A
O1125     Co1128   2.085       .  S
O1126      C1133   1.257       .  A
O1126     Co1131   1.971       .  S
O1127      C1134   1.264       .  A
O1127     Co1130   1.981       .  S
Co1128     O1132   2.041       .  S
Co1129     O1132   2.037       .  S
Co1130     O1132   2.018       .  S
Co1131     O1132   2.025       .  S
C1133      C1237   1.513       .  S
C1134      C1408   1.501       .  S
C1135      C1492   1.499       .  S
C1136      C1251   1.499       .  S
O1137      C1145   1.261       .  A
O1137     Co1157   2.021       .  S
O1138      C1146   1.275       .  A
O1138     Co1158   2.056       .  S
O1139      C1147   1.241       .  A
O1139     Co1159   1.893       .  S
O1140      C1148   1.265       .  A
O1140     Co1160   1.881       .  S
O1141      C1147   1.272       .  A
O1141     Co1158   2.054       .  S
O1142      C1148   1.301       .  A
O1142     Co1157   2.123       .  S
O1143      C1146   1.267       .  A
O1143     Co1160   1.990       .  S
O1144      C1145   1.245       .  A
O1144     Co1159   1.958       .  S
C1145      C3235   1.491   1_455  S
C1146      C1240   1.538       .  S
C1147      C1338   1.483       .  S
C1148      C1282   1.495       .  S
O1149      C1162   1.265       .  A
O1149     Co1157   1.880       .  S
O1150      C1163   1.245       .  A
O1150     Co1158   1.938       .  S
O1151      C1164   1.275       .  A
O1151     Co1159   2.018       .  S
O1152      C1165   1.266       .  A
O1152     Co1160   2.046       .  S
O1153      C1165   1.244       .  A
O1153     Co1158   1.953       .  S
O1154      C1164   1.273       .  A
O1154     Co1157   2.000       .  S
O1155      C1162   1.302       .  A
O1155     Co1160   2.115       .  S
O1156      C1163   1.275       .  A
O1156     Co1159   2.061       .  S
Co1157     O1161   2.044       .  S
Co1158     O1161   2.058       .  S
Co1159     O1161   2.049       .  S
Co1160     O1161   2.039       .  S
C1162      C1226   1.495       .  S
C1163      C1296   1.492       .  S
C1164      C1349   1.529       .  S
C1165      C1209   1.494       .  S
O1166      C1174   1.249       .  A
O1166     Co1186   1.975       .  S
O1167      C1175   1.264       .  A
O1167     Co1187   1.965       .  S
O1168      C1176   1.274       .  A
O1168     Co1188   2.037       .  S
O1169      C1177   1.240       .  A
O1169     Co1189   1.966       .  S
O1170      C1176   1.246       .  A
O1170     Co1187   1.904       .  S
O1171      C1177   1.257       .  A
O1171     Co1186   2.000       .  S
O1172      C1175   1.273       .  A
O1172     Co1189   2.023       .  S
O1173      C1174   1.251       .  A
O1173     Co1188   1.993       .  S
C1174      C1324   1.507       .  S
C1175      C1366   1.501       .  S
C1176      C1506   1.463       .  S
O1178      C1191   1.289       .  A
O1178     Co1186   2.044       .  S
O1179      C1192   1.272       .  A
O1179     Co1187   2.030       .  S
O1180      C1193   1.278       .  A
O1180     Co1188   1.906       .  S
O1181      C1194   1.267       .  A
O1181     Co1189   2.005       .  S
O1182      C1194   1.258       .  A
O1182     Co1187   1.970       .  S
O1183      C1193   1.299       .  A
O1183     Co1186   2.048       .  S
O1184      C1191   1.277       .  A
O1184     Co1189   1.939       .  S
O1185      C1192   1.255       .  A
O1185     Co1188   1.984       .  S
Co1186     O1190   2.227       .  S
Co1187     O1190   2.062       .  S
Co1188     O1190   1.975       .  S
Co1189     O1190   1.991       .  S
C1191      C1377   1.488       .  S
C1192      C1212   1.503       .  S
C1193      C1520   1.503       .  S
C1194      C1310   1.500       .  S
C1195      C3185   1.491       .  S
C1195      C1196   1.404       .  A
C1195      C1200   1.420       .  A
C1196      C1197   1.406       .  A
C1196      C3241   1.441       .  S
C1197      C1198   1.409       .  A
C1197      C1204   1.438       .  S
C1198      C1199   1.418       .  A
C1199      C1200   1.415       .  A
C1199      C1202   1.450       .  S
C1200      C1203   1.452       .  S
C1201      C3236   1.441   1_455  S
C1201      N1208   1.153       .  T
C1202      N1207   1.157       .  T
C1203      N1205   1.158       .  T
C1209      C1210   1.414       .  A
C1209      C1214   1.404       .  A
C1210      C1211   1.407       .  A
C1210      C1215   1.440       .  S
C1211      C1212   1.411       .  A
C1211      C1218   1.454       .  S
C1212      C1213   1.429       .  A
C1213      C1214   1.422       .  A
C1213      C1216   1.445       .  S
C1214      C1217   1.451       .  S
C1215      N1222   1.152       .  T
C1216      N1221   1.156       .  T
C1217      N1219   1.157       .  T
C1218      N1220   1.157       .  T
C1223      C1224   1.417       .  A
C1223      C1228   1.410       .  A
C1224      C1225   1.420       .  A
C1224      C1229   1.450       .  S
C1225      C1226   1.414       .  A
C1225      C1232   1.449       .  S
C1226      C1227   1.417       .  A
C1227      C1228   1.404       .  A
C1227      C1230   1.447       .  S
C1228      C1231   1.455       .  S
C1229      N1236   1.157       .  T
C1230      N1235   1.154       .  T
C1231      N1233   1.157       .  T
C1232      N1234   1.157       .  T
C1237      C1748   1.412       .  A
C1237      C1242   1.416       .  A
C1238      C1747   1.412       .  A
C1238      C1239   1.412   1_556  A
C1238      C1243   1.455       .  S
C1239      C1240   1.420       .  A
C1239      C1246   1.434       .  S
C1240      C1241   1.428       .  A
C1241      C1752   1.432   1_554  A
C1241      C1244   1.447       .  S
C1242      C1751   1.432       .  A
C1242      C1245   1.449       .  S
C1243      N1760   1.157       .  T
C1244      N1249   1.157       .  T
C1245      N1247   1.157       .  T
C1246      N1248   1.150       .  T
N1250      C1753   1.157       .  T
C1251      C1762   1.419       .  A
C1252      C1761   1.419   1_554  A
C1252      C1253   1.412       .  A
C1252      C1257   1.451       .  S
C1253      C1260   1.449       .  S
C1254      C1765   1.417   1_544  A
C1255      C1764   1.417   1_565  A
C1255      C1256   1.409   1_565  A
C1255      C1258   1.448       .  S
C1256      C1259   1.449   1_545  S
C1257      N1264   1.158       .  T
C1258      N1263   1.157       .  T
C1259      N1261   1.158       .  T
C1260      N1262   1.157       .  T
C1265      C1266   1.421       .  A
C1265      C1270   1.408       .  A
C1267      C1268   1.403       .  A
C1267      C1274   1.451       .  S
C1269      C1270   1.415       .  A
C1269      C1272   1.448       .  S
C1270      C1273   1.449       .  S
C1271      N1278   1.156       .  T
C1272      N1277   1.157       .  T
C1273      N1275   1.157       .  T
C1274      N1276   1.157       .  T
C1279      C1280   1.407       .  A
C1279      C1284   1.423       .  A
C1280      C1281   1.398       .  A
C1280      C1285   1.441       .  S
C1281      C1282   1.414       .  A
C1281      C1288   1.453       .  S
C1282      C1283   1.419       .  A
C1283      C1284   1.422       .  A
C1283      C1286   1.451       .  S
C1284      C1287   1.449       .  S
C1285      N1292   1.156       .  T
C1286      N1291   1.157       .  T
C1288      N1290   1.157       .  T
C1293      C1294   1.413       .  A
C1293      C1298   1.424       .  A
C1294      C1295   1.406       .  A
C1294      C1299   1.456       .  S
C1295      C1296   1.418       .  A
C1295      C1302   1.447       .  S
C1296      C1297   1.412       .  A
C1297      C1298   1.422       .  A
C1297      C1300   1.451       .  S
C1298      C1301   1.448       .  S
C1299      N1306   1.157       .  T
C1300      N1305   1.157       .  T
C1301      N1303   1.157       .  T
C1302      N1304   1.158       .  T
C1307      C1308   1.407       .  A
C1307      C1312   1.420       .  A
C1308      C1309   1.407       .  A
C1308      C1313   1.451       .  S
C1309      C1310   1.425       .  A
C1309      C1316   1.453       .  S
C1310      C1311   1.412       .  A
C1311      C1312   1.420       .  A
C1311      C1314   1.449       .  S
C1312      C1315   1.450       .  S
C1313      N1320   1.156       .  T
C1314      N1319   1.157       .  T
C1315      N1317   1.157       .  T
C1316      N1318   1.157       .  T
C1321      C3127   1.503       .  S
C1321      C1322   1.421       .  A
C1321      C1326   1.418       .  A
C1322      C1323   1.411       .  A
C1322      C1327   1.450       .  S
C1323      C1324   1.420       .  A
C1323      C1330   1.455       .  S
C1324      C1325   1.408       .  A
C1325      C1326   1.412       .  A
C1325      C1328   1.446       .  S
C1326      C1329   1.448       .  S
C1327      N3374   1.156       .  T
C1328      N1333   1.157       .  T
C1329      N1331   1.157       .  T
C1330      N1332   1.158       .  T
N1334      C3367   1.156       .  T
C1335      C3376   1.412       .  A
C1335      C3380   1.402       .  A
C1336      C3375   1.412       .  A
C1336      C1847   1.414       .  A
C1336      C1341   1.450       .  S
C1337      C1846   1.414   1_554  A
C1337      C1338   1.419       .  A
C1337      C1344   1.445       .  S
C1338      C1339   1.419       .  A
C1339      C1850   1.396   1_554  A
C1339      C1342   1.453       .  S
C1340      C3375   1.402       .  A
C1340      C1849   1.396       .  A
C1340      C3383   1.447   1_455  S
C1341      N3388   1.157       .  T
C1342      N1347   1.156       .  T
C1343      C3380   1.447       .  S
C1343      N1345   1.156       .  T
C1344      N1346   1.157       .  T
N1348      C3381   1.157       .  T
C1349      C1350   1.428   1_455  A
C1349      C1354   1.424       .  A
C1350      C3391   1.415       .  A
C1350      C3395   1.450       .  S
C1351      C3390   1.415       .  A
C1351      C1352   1.415       .  A
C1351      C1358   1.456       .  S
C1352      C3393   1.417       .  A
C1353      C3392   1.417   1_455  A
C1353      C1354   1.430       .  A
C1353      C1356   1.450       .  S
C1354      C1357   1.449       .  S
C1355      C3390   1.450       .  S
C1355      N1362   1.157       .  T
C1356      N1361   1.157       .  T
C1357      N1359   1.157       .  T
C1358      N1360   1.158       .  T
C1363      C1364   1.427       .  A
C1363      C1368   1.420       .  A
C1364      C1875   1.424       .  A
C1364      C1369   1.449       .  S
C1365      C1874   1.424       .  A
C1365      C1372   1.449       .  S
C1366      C1367   1.412       .  A
C1367      C1370   1.450       .  S
C1368      C1371   1.452       .  S
C1369      N1376   1.157       .  T
C1370      N1375   1.155       .  T
C1371      N1373   1.157       .  T
C1372      N1374   1.157       .  T
C1377      C1382   1.417       .  A
C1378      C1379   1.394       .  A
C1378      C1383   1.439       .  S
C1379      C1380   1.408       .  A
C1379      C1386   1.454       .  S
C1380      C1381   1.417       .  A
C1381      C1384   1.447       .  S
C1382      C1385   1.448       .  S
C1383      N1390   1.154       .  T
C1384      N1389   1.157       .  T
C1385      N1387   1.157       .  T
C1386      N1388   1.155       .  T
C1391      C1392   1.429       .  A
C1391      C1396   1.411       .  A
C1392      C1393   1.411       .  A
C1392      C1397   1.451       .  S
C1393      C1394   1.418       .  A
C1393      C1400   1.458       .  S
C1394      C1395   1.420       .  A
C1395      C1396   1.414       .  A
C1395      C1398   1.445       .  S
C1396      C1399   1.448       .  S
C1397      N1404   1.156   1_455  T
C1398      N1403   1.155       .  T
C1399      N1401   1.156       .  T
C1400      N1402   1.158       .  T
C1405      C1406   1.421       .  A
C1405      C1410   1.415       .  A
C1406      C1407   1.419       .  A
C1406      C1411   1.450       .  S
C1407      C1408   1.412       .  A
C1407      C1414   1.451       .  S
C1408      C1409   1.418       .  A
C1409      C1410   1.416       .  A
C1409      C1412   1.447       .  S
C1410      C1413   1.453       .  S
C1411      N1418   1.157       .  T
C1412      N1417   1.156       .  T
C1413      N1415   1.158       .  T
C1414      N1416   1.157       .  T
C1419      C3460   1.406   1_455  A
C1419      C1934   1.414       .  A
C1420      C3459   1.406       .  A
C1420      C1421   1.416       .  A
C1420      C1425   1.450       .  S
C1421      C1932   1.427   1_554  A
C1421      C1428   1.452       .  S
C1422      C1931   1.427       .  A
C1422      C3463   1.412       .  A
C1423      C3462   1.412   1_455  A
C1423      C1424   1.413       .  A
C1423      C1426   1.447       .  S
C1424      C1929   1.414       .  A
C1424      C1427   1.449       .  S
C1425      N1432   1.157       .  T
C1426      N1431   1.157       .  T
C1427      N1429   1.156       .  T
C1428      N1430   1.158       .  T
C1433      C1434   1.418       .  A
C1433      C3478   1.414       .  A
C1434      C3475   1.412       .  A
C1434      C1439   1.449       .  S
C1435      C3474   1.412   1_455  A
C1435      C1436   1.418       .  A
C1435      C1442   1.454       .  S
C1436      C1437   1.421       .  A
C1437      C1438   1.406       .  A
C1437      C1440   1.450       .  S
C1438      C3473   1.414   1_455  A
C1438      C1441   1.456       .  S
C1439      N1446   1.156       .  T
C1440      N1445   1.157       .  T
C1441      N1443   1.157       .  T
C1442      N1444   1.158   1_455  T
C1447      C1448   1.424       .  A
C1447      C1452   1.427       .  A
C1448      C1449   1.420       .  A
C1448      C1453   1.452       .  S
C1449      C1450   1.419       .  A
C1449      C1456   1.451       .  S
C1450      C1451   1.419       .  A
C1451      C1452   1.411       .  A
C1451      C1454   1.457       .  S
C1453      N1460   1.157       .  T
C1454      N1459   1.157       .  T
C1455      N1457   1.157       .  T
C1456      N1458   1.157       .  T
C1461      C1462   1.414       .  A
C1461      C1466   1.413       .  A
C1462      C1463   1.414       .  A
C1462      C1467   1.453       .  S
C1463      C1464   1.424       .  A
C1463      C1470   1.452       .  S
C1464      C1465   1.422       .  A
C1465      C1466   1.407       .  A
C1465      C1468   1.455       .  S
C1466      C1469   1.448       .  S
C1467      N1474   1.157       .  T
C1468      N1473   1.158       .  T
C1469      N1471   1.155       .  T
C1470      N1472   1.158       .  T
C1475      C1476   1.413       .  A
C1475      C1480   1.406       .  A
C1476      C1477   1.417       .  A
C1476      C1481   1.443       .  S
C1477      C1478   1.422       .  A
C1477      C1484   1.450       .  S
C1478      C3072   1.516   1_455  S
C1478      C1479   1.424       .  A
C1479      C1480   1.409       .  A
C1479      C1482   1.446   1_455  S
C1481      N1488   1.154       .  T
C1482      N3527   1.156       .  T
C1483      N1485   1.156       .  T
C1484      N1486   1.157       .  T
N1487      C3522   1.156       .  T
C1489      C1490   1.420       .  A
C1489      C1494   1.418       .  A
C1490      C1491   1.410       .  A
C1490      C1495   1.451       .  S
C1491      C1492   1.420       .  A
C1491      C1498   1.454       .  S
C1492      C1493   1.419       .  A
C1493      C1494   1.407       .  A
C1493      C1496   1.450       .  S
C1494      C1497   1.455       .  S
C1495      N1502   1.157       .  T
C1496      N1501   1.156       .  T
C1497      N1499   1.158       .  T
C1498      N1500   1.158       .  T
C1503      C1504   1.411       .  A
C1503      C1508   1.417       .  A
C1504      C1505   1.417       .  A
C1504      C1509   1.449       .  S
C1505      C2016   1.415       .  A
C1505      C1512   1.450       .  S
C1506      C2015   1.415       .  A
C1506      C1507   1.412       .  A
C1507      C2018   1.392   1_554  A
C1507      C1510   1.457       .  S
C1508      C2017   1.392       .  A
C1508      C1511   1.456       .  S
C1509      N1516   1.158       .  T
C1510      N1515   1.157       .  T
C1511      N2023   1.156       .  T
C1512      N1514   1.157       .  T
N1513      C2021   1.156       .  T
C1517      C1518   1.415       .  A
C1517      C1522   1.422       .  A
C1518      C1519   1.416       .  A
C1518      C1523   1.448       .  S
C1519      C1520   1.421       .  A
C1519      C1526   1.452       .  S
C1520      C1521   1.416       .  A
C1521      C1522   1.414       .  A
C1521      C1524   1.454       .  S
C1522      C1525   1.451       .  S
C1523      N1530   1.156       .  T
C1524      N1529   1.158       .  T
C1525      N1527   1.157       .  T
C1526      N1528   1.157       .  T
O1531      C1539   1.258       .  A
O1531     Co1551   1.892       .  S
O1532      C1540   1.249       .  A
O1532     Co1552   1.949       .  S
O1533      C1541   1.262       .  A
O1533     Co1553   2.035       .  S
O1534      C1542   1.282       .  A
O1534     Co1554   2.035       .  S
O1535      C1541   1.240       .  A
O1535     Co1552   1.911       .  S
O1536      C1542   1.268       .  A
O1536     Co1551   1.976       .  S
O1537      C1540   1.270       .  A
O1537     Co1554   2.042       .  S
O1538      C1539   1.293       .  A
O1538     Co1553   2.109       .  S
C1539      C1960   1.509       .  S
C1540      C1932   1.505       .  S
C1541      C2013   1.479       .  S
C1542      C4028   1.516       .  S
O1543      C1556   1.259       .  A
O1543     Co1551   1.984       .  S
O1544      C1557   1.275       .  A
O1544     Co1552   2.018       .  S
O1545      C1558   1.266       .  A
O1545     Co1553   1.895       .  S
O1546      C1559   1.264       .  A
O1546     Co1554   1.956       .  S
O1547      C1559   1.273       .  A
O1547     Co1552   2.014       .  S
O1548      C1558   1.301       .  A
O1548     Co1551   2.110       .  S
O1549      C1556   1.252       .  A
O1549     Co1554   1.968       .  S
O1550      C1557   1.259       .  A
O1550     Co1553   1.950       .  S
Co1551     O1555   2.002       .  S
Co1552     O1555   1.993       .  S
Co1553     O1555   2.049       .  S
Co1554     O1555   2.047       .  S
C1556      C1943   1.493       .  S
C1557      C1999   1.497       .  S
C1558      C2027   1.506       .  S
C1559      C1971   1.492       .  S
O1560      C1568   1.255       .  A
O1560     Co1580   1.979       .  S
O1561      C1569   1.260       .  A
O1561     Co1581   1.957       .  S
O1562      C1570   1.305       .  A
O1562     Co3622   2.139       .  S
O1563      C1571   1.269       .  A
O1563     Co1583   2.037       .  S
O1564      C3610   1.250       .  A
O1564     Co1581   1.869       .  S
O1565      C1571   1.254       .  A
O1565     Co1580   1.921       .  S
O1566      C1569   1.280       .  A
O1566     Co1583   2.047       .  S
O1567      C1568   1.264       .  A
O1567     Co1582   2.041       .  S
C1568      C1862   1.516       .  S
C1570      O3604   1.250       .  A
C1570      C1901   1.512   1_655  S
C1571      C1890   1.493       .  S
O1572      C1585   1.278       .  A
O1572     Co1580   2.035       .  S
O1573      C1586   1.297       .  A
O1573     Co1581   2.092       .  S
O1574      C1587   1.263       .  A
O1574     Co1582   1.968       .  S
O1575      C1588   1.255       .  A
O1575     Co1583   1.983       .  S
O1576      C1588   1.259       .  A
O1576     Co1581   1.994       .  S
O1577      C1587   1.272       .  A
O1577     Co1580   2.002       .  S
O1578      C1585   1.261       .  A
O1578     Co1583   1.963       .  S
O1579      C1586   1.264       .  A
O1579     Co1582   1.888       .  S
Co1580     O1584   2.011       .  S
Co1581     O1584   1.977       .  S
Co1582     O3602   2.139       .  S
Co1582     O1584   2.050       .  S
Co1583     O1584   2.078       .  S
C1585      C1915   1.506       .  S
C1586      C1845   1.476       .  S
C1587      C1974   1.504       .  S
C1588      C1873   1.511       .  S
O1589      C1597   1.295       .  A
O1589     Co1609   2.098       .  S
O1590      C1598   1.268       .  A
O1590     Co1610   2.013       .  S
O1591      C1599   1.257   1_565  A
O1591     Co1611   1.949       .  S
O1592      C1600   1.256       .  A
O1592     Co1612   1.965       .  S
O1593      C1599   1.287       .  A
O1593     Co1610   2.074   1_545  S
O1594      C1600   1.267       .  A
O1594     Co1609   2.031       .  S
O1595      C1598   1.260       .  A
O1595     Co1612   1.965       .  S
O1596      C1597   1.265       .  A
O1596     Co1611   1.905       .  S
C1597      C3871   1.503   1_455  S
C1598      C1764   1.487   1_565  S
C1600      C1929   1.493       .  S
O1601      C1614   1.265       .  A
O1601     Co1609   1.974       .  S
O1602      C1615   1.241       .  A
O1602     Co1610   1.952       .  S
O1603      C1616   1.290       .  A
O1603     Co1611   2.074       .  S
O1604      C1617   1.275       .  A
O1604     Co1612   2.027       .  S
O1605      C1617   1.256       .  A
O1605     Co1610   1.959       .  S
O1606      C1616   1.268       .  A
O1606     Co1609   1.902       .  S
O1607      C1614   1.278       .  A
O1607     Co1612   2.022       .  S
O1608      C1615   1.267       .  A
O1608     Co1611   2.038       .  S
Co1609     O1613   2.037       .  S
Co1610     O1613   2.044       .  S
Co1611     O1613   2.015       .  S
Co1612     O1613   2.031       .  S
C1614      C1803   1.507       .  S
C1615      C1778   1.486       .  S
C1616      C1946   1.496       .  S
C1617      C1817   1.493       .  S
O1618      C1626   1.267       .  A
O1618     Co1638   1.912       .  S
O1619      C1627   1.250       .  A
O1619     Co1639   1.950       .  S
O1620      C1628   1.267       .  A
O1620     Co1640   2.041       .  S
O1621      C1629   1.278       .  A
O1621     Co1641   2.022       .  S
O1622      C1628   1.244       .  A
O1622     Co1639   1.941       .  S
O1623      C1629   1.272       .  A
O1623     Co1638   1.983       .  S
O1624      C1627   1.277       .  A
O1624     Co1641   2.061       .  S
O1625      C1626   1.292       .  A
O1625     Co1640   2.080       .  S
C1626      C1733   1.489       .  S
C1628      C1775   1.489       .  S
C1629      C1904   1.507       .  S
O1630      C1643   1.262       .  A
O1630     Co1638   2.034       .  S
O1631      C1644   1.276       .  A
O1631     Co1639   2.044       .  S
O1632      C1645   1.268       .  A
O1632     Co1640   1.886       .  S
O1633      C1646   1.255       .  A
O1633     Co1641   1.957       .  S
O1634      C1646   1.276       .  A
O1634     Co1639   2.034       .  S
O1635      C1645   1.296       .  A
O1635     Co1638   2.085       .  S
O1636      C1643   1.257       .  A
O1636     Co1641   1.971       .  S
O1637      C1644   1.264       .  A
O1637     Co1640   1.981       .  S
Co1638     O1642   2.041       .  S
Co1639     O1642   2.037       .  S
Co1640     O1642   2.018       .  S
Co1641     O1642   2.025       .  S
C1643      C1747   1.513       .  S
C1644      C1918   1.501       .  S
C1645      C2002   1.499       .  S
C1646      C1761   1.499       .  S
O1647      C1655   1.261       .  A
O1647     Co1667   2.021       .  S
O1648      C1656   1.275       .  A
O1648     Co1668   2.056       .  S
O1649      C1657   1.241       .  A
O1649     Co1669   1.893       .  S
O1650      C1658   1.265       .  A
O1650     Co1670   1.881       .  S
O1651      C1657   1.272       .  A
O1651     Co1668   2.054       .  S
O1652      C1658   1.301       .  A
O1652     Co1667   2.123       .  S
O1653      C1656   1.267       .  A
O1653     Co1670   1.990       .  S
O1654      C1655   1.245       .  A
O1654     Co1669   1.958       .  S
C1655      C3745   1.491   1_455  S
C1656      C1750   1.538       .  S
C1657      C1848   1.483       .  S
C1658      C1792   1.495       .  S
O1659      C1672   1.265       .  A
O1659     Co1667   1.880       .  S
O1660      C1673   1.245       .  A
O1660     Co1668   1.938       .  S
O1661      C1674   1.275       .  A
O1661     Co1669   2.018       .  S
O1662      C1675   1.266       .  A
O1662     Co1670   2.046       .  S
O1663      C1675   1.244       .  A
O1663     Co1668   1.953       .  S
O1664      C1674   1.273       .  A
O1664     Co1667   2.000       .  S
O1665      C1672   1.302       .  A
O1665     Co1670   2.115       .  S
O1666      C1673   1.275       .  A
O1666     Co1669   2.061       .  S
Co1667     O1671   2.044       .  S
Co1668     O1671   2.058       .  S
Co1669     O1671   2.049       .  S
Co1670     O1671   2.039       .  S
C1672      C1736   1.495       .  S
C1673      C1806   1.492       .  S
C1674      C1859   1.529       .  S
C1675      C1719   1.494       .  S
O1676      C1684   1.249       .  A
O1676     Co1696   1.975       .  S
O1677      C1685   1.264       .  A
O1677     Co1697   1.965       .  S
O1678      C1686   1.274       .  A
O1678     Co1698   2.037       .  S
O1679      C1687   1.240       .  A
O1679     Co1699   1.966       .  S
O1680      C1686   1.246       .  A
O1680     Co1697   1.904       .  S
O1681      C1687   1.257       .  A
O1681     Co1696   2.000       .  S
O1682      C1685   1.273       .  A
O1682     Co1699   2.023       .  S
O1683      C1684   1.251       .  A
O1683     Co1698   1.993       .  S
C1684      C1834   1.507       .  S
C1685      C1876   1.501       .  S
C1686      C2016   1.463       .  S
O1688      C1701   1.289       .  A
O1688     Co1696   2.044       .  S
O1689      C1702   1.272       .  A
O1689     Co1697   2.030       .  S
O1690      C1703   1.278       .  A
O1690     Co1698   1.906       .  S
O1691      C1704   1.267       .  A
O1691     Co1699   2.005       .  S
O1692      C1704   1.258       .  A
O1692     Co1697   1.970       .  S
O1693      C1703   1.299       .  A
O1693     Co1696   2.048       .  S
O1694      C1701   1.277       .  A
O1694     Co1699   1.939       .  S
O1695      C1702   1.255       .  A
O1695     Co1698   1.984       .  S
Co1696     O1700   2.227       .  S
Co1697     O1700   2.062       .  S
Co1698     O1700   1.975       .  S
Co1699     O1700   1.991       .  S
C1701      C1887   1.488       .  S
C1702      C1722   1.503       .  S
C1703      C2030   1.503       .  S
C1704      C1820   1.500       .  S
C1705      C3695   1.491       .  S
C1705      C1706   1.404       .  A
C1705      C1710   1.420       .  A
C1706      C1707   1.406       .  A
C1706      C3751   1.441       .  S
C1707      C1708   1.409       .  A
C1707      C1714   1.438       .  S
C1708      C1709   1.418       .  A
C1709      C1710   1.415       .  A
C1709      C1712   1.450       .  S
C1710      C1713   1.452       .  S
C1711      C3746   1.441   1_455  S
C1711      N1718   1.153       .  T
C1712      N1717   1.157       .  T
C1713      N1715   1.158       .  T
C1719      C1720   1.414       .  A
C1719      C1724   1.404       .  A
C1720      C1721   1.407       .  A
C1720      C1725   1.440       .  S
C1721      C1722   1.411       .  A
C1721      C1728   1.454       .  S
C1722      C1723   1.429       .  A
C1723      C1724   1.422       .  A
C1723      C1726   1.445       .  S
C1724      C1727   1.451       .  S
C1725      N1732   1.152       .  T
C1726      N1731   1.156       .  T
C1727      N1729   1.157       .  T
C1728      N1730   1.157       .  T
C1733      C1734   1.417       .  A
C1733      C1738   1.410       .  A
C1734      C1735   1.420       .  A
C1734      C1739   1.450       .  S
C1735      C1736   1.414       .  A
C1735      C1742   1.449       .  S
C1736      C1737   1.417       .  A
C1737      C1738   1.404       .  A
C1737      C1740   1.447       .  S
C1738      C1741   1.455       .  S
C1739      N1746   1.157       .  T
C1740      N1745   1.154       .  T
C1741      N1743   1.157       .  T
C1742      N1744   1.157       .  T
C1747      C1752   1.416       .  A
C1748      C1749   1.412       .  A
C1748      C1753   1.455       .  S
C1749      C1750   1.420       .  A
C1749      C1756   1.434       .  S
C1750      C1751   1.428       .  A
C1751      C1754   1.447       .  S
C1752      C1755   1.449       .  S
C1754      N1759   1.157       .  T
C1755      N1757   1.157       .  T
C1756      N1758   1.150       .  T
C1762      C1763   1.412       .  A
C1762      C1767   1.451       .  S
C1763      C1770   1.449       .  S
C1765      C1766   1.409   1_565  A
C1765      C1768   1.448       .  S
C1766      C1769   1.449   1_545  S
C1767      N1774   1.158       .  T
C1768      N1773   1.157       .  T
C1769      N1771   1.158       .  T
C1770      N1772   1.157       .  T
C1775      C1776   1.421       .  A
C1775      C1780   1.408       .  A
C1777      C1778   1.403       .  A
C1777      C1784   1.451       .  S
C1779      C1780   1.415       .  A
C1779      C1782   1.448       .  S
C1780      C1783   1.449       .  S
C1781      N1788   1.156       .  T
C1782      N1787   1.157       .  T
C1783      N1785   1.157       .  T
C1784      N1786   1.157       .  T
C1789      C1790   1.407       .  A
C1789      C1794   1.423       .  A
C1790      C1791   1.398       .  A
C1790      C1795   1.441       .  S
C1791      C1792   1.414       .  A
C1791      C1798   1.453       .  S
C1792      C1793   1.419       .  A
C1793      C1794   1.422       .  A
C1793      C1796   1.451       .  S
C1794      C1797   1.449       .  S
C1795      N1802   1.156       .  T
C1796      N1801   1.157       .  T
C1798      N1800   1.157       .  T
C1803      C1804   1.413       .  A
C1803      C1808   1.424       .  A
C1804      C1805   1.406       .  A
C1804      C1809   1.456       .  S
C1805      C1806   1.418       .  A
C1805      C1812   1.447       .  S
C1806      C1807   1.412       .  A
C1807      C1808   1.422       .  A
C1807      C1810   1.451       .  S
C1808      C1811   1.448       .  S
C1809      N1816   1.157       .  T
C1810      N1815   1.157       .  T
C1811      N1813   1.157       .  T
C1812      N1814   1.158       .  T
C1817      C1818   1.407       .  A
C1817      C1822   1.420       .  A
C1818      C1819   1.407       .  A
C1818      C1823   1.451       .  S
C1819      C1820   1.425       .  A
C1819      C1826   1.453       .  S
C1820      C1821   1.412       .  A
C1821      C1822   1.420       .  A
C1821      C1824   1.449       .  S
C1822      C1825   1.450       .  S
C1823      N1830   1.156       .  T
C1824      N1829   1.157       .  T
C1825      N1827   1.157       .  T
C1826      N1828   1.157       .  T
C1831      C3637   1.503       .  S
C1831      C1832   1.421       .  A
C1831      C1836   1.418       .  A
C1832      C1833   1.411       .  A
C1832      C1837   1.450       .  S
C1833      C1834   1.420       .  A
C1833      C1840   1.455       .  S
C1834      C1835   1.408       .  A
C1835      C1836   1.412       .  A
C1835      C1838   1.446       .  S
C1836      C1839   1.448       .  S
C1837      N3884   1.156       .  T
C1838      N1843   1.157       .  T
C1839      N1841   1.157       .  T
C1840      N1842   1.158       .  T
N1844      C3877   1.156       .  T
C1845      C3886   1.412       .  A
C1845      C3890   1.402       .  A
C1846      C3885   1.412       .  A
C1846      C1851   1.450       .  S
C1847      C1848   1.419       .  A
C1847      C1854   1.445       .  S
C1848      C1849   1.419       .  A
C1849      C1852   1.453       .  S
C1850      C3885   1.402       .  A
C1850      C3893   1.447   1_455  S
C1851      N3898   1.157       .  T
C1852      N1857   1.156       .  T
C1853      C3890   1.447       .  S
C1853      N1855   1.156       .  T
C1854      N1856   1.157       .  T
N1858      C3891   1.157       .  T
C1859      C1860   1.428   1_455  A
C1859      C1864   1.424       .  A
C1860      C3901   1.415       .  A
C1860      C3905   1.450       .  S
C1861      C3900   1.415       .  A
C1861      C1862   1.415       .  A
C1861      C1868   1.456       .  S
C1862      C3903   1.417       .  A
C1863      C3902   1.417   1_455  A
C1863      C1864   1.430       .  A
C1863      C1866   1.450       .  S
C1864      C1867   1.449       .  S
C1865      C3900   1.450       .  S
C1865      N1872   1.157       .  T
C1866      N1871   1.157       .  T
C1867      N1869   1.157       .  T
C1868      N1870   1.158       .  T
C1873      C1874   1.427   1_556  A
C1873      C1878   1.420       .  A
C1874      C1879   1.449   1_554  S
C1875      C1882   1.449       .  S
C1876      C1877   1.412       .  A
C1877      C1880   1.450       .  S
C1878      C1881   1.452       .  S
C1879      N1886   1.157       .  T
C1880      N1885   1.155       .  T
C1881      N1883   1.157       .  T
C1882      N1884   1.157       .  T
C1887      C1892   1.417       .  A
C1888      C1889   1.394       .  A
C1888      C1893   1.439       .  S
C1889      C1890   1.408       .  A
C1889      C1896   1.454       .  S
C1890      C1891   1.417       .  A
C1891      C1894   1.447       .  S
C1892      C1895   1.448       .  S
C1893      N1900   1.154       .  T
C1894      N1899   1.157       .  T
C1895      N1897   1.157       .  T
C1896      N1898   1.155       .  T
C1901      C1902   1.429       .  A
C1901      C1906   1.411       .  A
C1902      C1903   1.411       .  A
C1902      C1907   1.451       .  S
C1903      C1904   1.418       .  A
C1903      C1910   1.458       .  S
C1904      C1905   1.420       .  A
C1905      C1906   1.414       .  A
C1905      C1908   1.445       .  S
C1906      C1909   1.448       .  S
C1907      N1914   1.156   1_455  T
C1908      N1913   1.155       .  T
C1909      N1911   1.156       .  T
C1910      N1912   1.158       .  T
C1915      C1916   1.421       .  A
C1915      C1920   1.415       .  A
C1916      C1917   1.419       .  A
C1916      C1921   1.450       .  S
C1917      C1918   1.412       .  A
C1917      C1924   1.451       .  S
C1918      C1919   1.418       .  A
C1919      C1920   1.416       .  A
C1919      C1922   1.447       .  S
C1920      C1923   1.453       .  S
C1921      N1928   1.157       .  T
C1922      N1927   1.156       .  T
C1923      N1925   1.158       .  T
C1924      N1926   1.157       .  T
C1929      C3970   1.406   1_455  A
C1930      C3969   1.406       .  A
C1930      C1931   1.416       .  A
C1930      C1935   1.450       .  S
C1931      C1938   1.452       .  S
C1932      C3973   1.412       .  A
C1933      C3972   1.412   1_455  A
C1933      C1934   1.413   1_556  A
C1933      C1936   1.447       .  S
C1934      C1937   1.449       .  S
C1935      N1942   1.157       .  T
C1936      N1941   1.157       .  T
C1937      N1939   1.156       .  T
C1938      N1940   1.158       .  T
C1943      C1944   1.418       .  A
C1943      C3988   1.414       .  A
C1944      C3985   1.412       .  A
C1944      C1949   1.449       .  S
C1945      C3984   1.412   1_455  A
C1945      C1946   1.418       .  A
C1945      C1952   1.454       .  S
C1946      C1947   1.421       .  A
C1947      C1948   1.406       .  A
C1947      C1950   1.450       .  S
C1948      C3983   1.414   1_455  A
C1948      C1951   1.456       .  S
C1949      N1956   1.156       .  T
C1950      N1955   1.157       .  T
C1951      N1953   1.157       .  T
C1952      N1954   1.158   1_455  T
C1957      C1958   1.424       .  A
C1957      C1962   1.427       .  A
C1958      C1959   1.420       .  A
C1958      C1963   1.452       .  S
C1959      C1960   1.419       .  A
C1959      C1966   1.451       .  S
C1960      C1961   1.419       .  A
C1961      C1962   1.411       .  A
C1961      C1964   1.457       .  S
C1963      N1970   1.157       .  T
C1964      N1969   1.157       .  T
C1965      N1967   1.157       .  T
C1966      N1968   1.157       .  T
C1971      C1972   1.414       .  A
C1971      C1976   1.413       .  A
C1972      C1973   1.414       .  A
C1972      C1977   1.453       .  S
C1973      C1974   1.424       .  A
C1973      C1980   1.452       .  S
C1974      C1975   1.422       .  A
C1975      C1976   1.407       .  A
C1975      C1978   1.455       .  S
C1976      C1979   1.448       .  S
C1977      N1984   1.157       .  T
C1978      N1983   1.158       .  T
C1979      N1981   1.155       .  T
C1980      N1982   1.158       .  T
C1985      C1986   1.413       .  A
C1985      C1990   1.406       .  A
C1986      C1987   1.417       .  A
C1986      C1991   1.443       .  S
C1987      C1988   1.422       .  A
C1987      C1994   1.450       .  S
C1988      C3582   1.516   1_455  S
C1988      C1989   1.424       .  A
C1989      C1990   1.409       .  A
C1989      C1992   1.446   1_455  S
C1991      N1998   1.154       .  T
C1992      N4037   1.156       .  T
C1993      N1995   1.156       .  T
C1994      N1996   1.157       .  T
N1997      C4032   1.156       .  T
C1999      C2000   1.420       .  A
C1999      C2004   1.418       .  A
C2000      C2001   1.410       .  A
C2000      C2005   1.451       .  S
C2001      C2002   1.420       .  A
C2001      C2008   1.454       .  S
C2002      C2003   1.419       .  A
C2003      C2004   1.407       .  A
C2003      C2006   1.450       .  S
C2004      C2007   1.455       .  S
C2005      N2012   1.157       .  T
C2006      N2011   1.156       .  T
C2007      N2009   1.158       .  T
C2008      N2010   1.158       .  T
C2013      C2014   1.411       .  A
C2013      C2018   1.417       .  A
C2014      C2015   1.417   1_556  A
C2014      C2019   1.449       .  S
C2015      C2022   1.450       .  S
C2016      C2017   1.412       .  A
C2017      C2020   1.457       .  S
C2018      C2021   1.456       .  S
C2019      N2026   1.158       .  T
C2020      N2025   1.157       .  T
C2022      N2024   1.157       .  T
C2027      C2028   1.415       .  A
C2027      C2032   1.422       .  A
C2028      C2029   1.416       .  A
C2028      C2033   1.448       .  S
C2029      C2030   1.421       .  A
C2029      C2036   1.452       .  S
C2030      C2031   1.416       .  A
C2031      C2032   1.414       .  A
C2031      C2034   1.454       .  S
C2032      C2035   1.451       .  S
C2033      N2040   1.156       .  T
C2034      N2039   1.158       .  T
C2035      N2037   1.157       .  T
C2036      N2038   1.157       .  T
O2041      C2049   1.258       .  A
O2041     Co2061   1.892       .  S
O2042      C2050   1.249       .  A
O2042     Co2062   1.949       .  S
O2043      C2051   1.262       .  A
O2043     Co2063   2.035       .  S
O2044      C2052   1.282   1_455  A
O2044     Co2064   2.035   1_455  S
O2045      C2051   1.240       .  A
O2045     Co2062   1.911       .  S
O2046      C2052   1.268       .  A
O2046     Co2061   1.976       .  S
O2047      C2050   1.270       .  A
O2047     Co2064   2.042       .  S
O2048      C2049   1.293       .  A
O2048     Co2063   2.109       .  S
C2049      C2470   1.509       .  S
C2050      C2442   1.505       .  S
C2051      C2523   1.479       .  S
O2053      C2066   1.259       .  A
O2053     Co2061   1.984       .  S
O2054      C2067   1.275       .  A
O2054     Co2062   2.018       .  S
O2055      C2068   1.266       .  A
O2055     Co2063   1.895       .  S
O2056      C2069   1.264       .  A
O2056     Co2064   1.956       .  S
O2057      C2069   1.273       .  A
O2057     Co2062   2.014       .  S
O2058      C2068   1.301       .  A
O2058     Co2061   2.110       .  S
O2059      C2066   1.252       .  A
O2059     Co2064   1.968       .  S
O2060      C2067   1.259       .  A
O2060     Co2063   1.950       .  S
Co2061     O2065   2.002       .  S
Co2062     O2065   1.993       .  S
Co2063     O2065   2.049       .  S
Co2064     O2065   2.047       .  S
C2066      C2453   1.493       .  S
C2067      C2509   1.497       .  S
C2068      C2537   1.506       .  S
C2069      C2481   1.492       .  S
O2070      C2078   1.255       .  A
O2070     Co2090   1.979       .  S
O2071      C2079   1.260       .  A
O2071     Co2091   1.957       .  S
O2072      C2080   1.305       .  A
O2073      C2081   1.269       .  A
O2073     Co2093   2.037       .  S
O2074     Co2091   1.869       .  S
O2075      C2081   1.254       .  A
O2075     Co2090   1.921       .  S
O2076      C2079   1.280       .  A
O2076     Co2093   2.047       .  S
O2077      C2078   1.264       .  A
O2077     Co2092   2.041       .  S
C2078      C2372   1.516       .  S
C2079      C3487   1.518   1_545  S
C2080      C2411   1.512       .  S
C2081      C2400   1.493       .  S
O2082      C2095   1.278       .  A
O2082     Co2090   2.035       .  S
O2083      C2096   1.297       .  A
O2083     Co2091   2.092       .  S
O2084      C2097   1.263       .  A
O2084     Co2092   1.968       .  S
O2085      C2098   1.255       .  A
O2085     Co2093   1.983       .  S
O2086      C2098   1.259       .  A
O2086     Co2091   1.994       .  S
O2087      C2097   1.272       .  A
O2087     Co2090   2.002       .  S
O2088      C2095   1.261       .  A
O2088     Co2093   1.963       .  S
O2089      C2096   1.264       .  A
O2089     Co2092   1.888       .  S
Co2090     O2094   2.011       .  S
Co2091     O2094   1.977       .  S
Co2092     O2094   2.050       .  S
Co2093     O2094   2.078       .  S
C2095      C2425   1.506       .  S
C2096      C2355   1.476   1_655  S
C2097      C2484   1.504       .  S
C2098      C2383   1.511       .  S
O2099      C2107   1.295       .  A
O2099     Co2119   2.098       .  S
O2100      C2108   1.268       .  A
O2100     Co2120   2.013       .  S
O2101      C2109   1.257       .  A
O2101     Co2121   1.949       .  S
O2102      C2110   1.256       .  A
O2102     Co2122   1.965       .  S
O2103      C2109   1.287       .  A
O2103     Co2120   2.074       .  S
O2104      C2110   1.267       .  A
O2104     Co2119   2.031       .  S
O2105      C2108   1.260       .  A
O2105     Co2122   1.965       .  S
O2106      C2107   1.265       .  A
O2106     Co2121   1.905       .  S
C2108      C2274   1.487       .  S
C2109      C3319   1.505       .  S
C2110      C2439   1.493       .  S
O2111      C2124   1.265       .  A
O2111     Co2119   1.974       .  S
O2112      C2125   1.241       .  A
O2112     Co2120   1.952       .  S
O2113      C2126   1.290       .  A
O2113     Co2121   2.074       .  S
O2114      C2127   1.275       .  A
O2114     Co2122   2.027       .  S
O2115      C2127   1.256       .  A
O2115     Co2120   1.959       .  S
O2116      C2126   1.268       .  A
O2116     Co2119   1.902       .  S
O2117      C2124   1.278       .  A
O2117     Co2122   2.022       .  S
O2118      C2125   1.267       .  A
O2118     Co2121   2.038       .  S
Co2119     O2123   2.037       .  S
Co2120     O2123   2.044       .  S
Co2121     O2123   2.015       .  S
Co2122     O2123   2.031       .  S
C2124      C2313   1.507       .  S
C2125      C2288   1.486       .  S
C2126      C2456   1.496       .  S
C2127      C2327   1.493       .  S
O2128      C2136   1.267       .  A
O2128     Co2148   1.912       .  S
O2129      C2137   1.250       .  A
O2129     Co2149   1.950       .  S
O2130      C2138   1.267       .  A
O2130     Co2150   2.041       .  S
O2131      C2139   1.278       .  A
O2131     Co2151   2.022       .  S
O2132      C2138   1.244       .  A
O2132     Co2149   1.941       .  S
O2133      C2139   1.272       .  A
O2133     Co2148   1.983       .  S
O2134      C2137   1.277       .  A
O2134     Co2151   2.061       .  S
O2135      C2136   1.292       .  A
O2135     Co2150   2.080       .  S
C2136      C2243   1.489       .  S
C2137      C3515   1.494   1_545  S
C2138      C2285   1.489       .  S
C2139      C2414   1.507       .  S
O2140      C2153   1.262       .  A
O2140     Co2148   2.034       .  S
O2141      C2154   1.276       .  A
O2141     Co2149   2.044       .  S
O2142      C2155   1.268       .  A
O2142     Co2150   1.886       .  S
O2143      C2156   1.255       .  A
O2143     Co2151   1.957       .  S
O2144      C2156   1.276       .  A
O2144     Co2149   2.034       .  S
O2145      C2155   1.296       .  A
O2145     Co2148   2.085       .  S
O2146      C2153   1.257       .  A
O2146     Co2151   1.971       .  S
O2147      C2154   1.264       .  A
O2147     Co2150   1.981       .  S
Co2148     O2152   2.041       .  S
Co2149     O2152   2.037       .  S
Co2150     O2152   2.018       .  S
Co2151     O2152   2.025       .  S
C2153      C2257   1.513       .  S
C2154      C2428   1.501       .  S
C2155      C2512   1.499       .  S
C2156      C2271   1.499       .  S
O2157      C2165   1.261       .  A
O2157     Co2177   2.021       .  S
O2158      C2166   1.275       .  A
O2158     Co2178   2.056       .  S
O2159      C2167   1.241       .  A
O2159     Co2179   1.893       .  S
O2160      C2168   1.265       .  A
O2160     Co2180   1.881       .  S
O2161      C2167   1.272       .  A
O2161     Co2178   2.054       .  S
O2162      C2168   1.301       .  A
O2162     Co2177   2.123       .  S
O2163      C2166   1.267       .  A
O2163     Co2180   1.990       .  S
O2164      C2165   1.245       .  A
O2164     Co2179   1.958       .  S
C2166      C2260   1.538       .  S
C2167      C2358   1.483       .  S
C2168      C2302   1.495       .  S
O2169      C2182   1.265       .  A
O2169     Co2177   1.880       .  S
O2170      C2183   1.245       .  A
O2170     Co2178   1.938       .  S
O2171      C2184   1.275       .  A
O2171     Co2179   2.018       .  S
O2172      C2185   1.266       .  A
O2172     Co2180   2.046       .  S
O2173      C2185   1.244       .  A
O2173     Co2178   1.953       .  S
O2174      C2184   1.273       .  A
O2174     Co2177   2.000       .  S
O2175      C2182   1.302       .  A
O2175     Co2180   2.115       .  S
O2176      C2183   1.275       .  A
O2176     Co2179   2.061       .  S
Co2177     O2181   2.044       .  S
Co2178     O2181   2.058       .  S
Co2179     O2181   2.049       .  S
Co2180     O2181   2.039       .  S
C2182      C2246   1.495       .  S
C2183      C2316   1.492       .  S
C2184      C2369   1.529       .  S
C2185      C2229   1.494       .  S
O2186      C2194   1.249       .  A
O2186     Co2206   1.975       .  S
O2187      C2195   1.264       .  A
O2187     Co2207   1.965       .  S
O2188      C2196   1.274       .  A
O2188     Co2208   2.037       .  S
O2189      C2197   1.240       .  A
O2189     Co2209   1.966       .  S
O2190      C2196   1.246       .  A
O2190     Co2207   1.904       .  S
O2191      C2197   1.257       .  A
O2191     Co2206   2.000       .  S
O2192      C2195   1.273       .  A
O2192     Co2209   2.023       .  S
O2193      C2194   1.251       .  A
O2193     Co2208   1.993       .  S
C2194      C2344   1.507       .  S
C2195      C2386   1.501       .  S
C2196      C2526   1.463       .  S
C2197      C3238   1.500       .  S
O2198      C2211   1.289       .  A
O2198     Co2206   2.044       .  S
O2199      C2212   1.272       .  A
O2199     Co2207   2.030       .  S
O2200      C2213   1.278       .  A
O2200     Co2208   1.906       .  S
O2201      C2214   1.267       .  A
O2201     Co2209   2.005       .  S
O2202      C2214   1.258       .  A
O2202     Co2207   1.970       .  S
O2203      C2213   1.299       .  A
O2203     Co2206   2.048       .  S
O2204      C2211   1.277       .  A
O2204     Co2209   1.939       .  S
O2205      C2212   1.255       .  A
O2205     Co2208   1.984       .  S
Co2206     O2210   2.227       .  S
Co2207     O2210   2.062       .  S
Co2208     O2210   1.975       .  S
Co2209     O2210   1.991       .  S
C2211      C2397   1.488       .  S
C2212      C2232   1.503       .  S
C2213      C2540   1.503       .  S
C2214      C2330   1.500       .  S
C2215      C2216   1.404       .  A
C2215      C2220   1.420       .  A
C2216      C2217   1.406       .  A
C2217      C2218   1.409       .  A
C2217      C2224   1.438   1_545  S
C2218      C3217   1.500   1_545  S
C2218      C2219   1.418       .  A
C2219      C2220   1.415       .  A
C2219      C2222   1.450       .  S
C2220      C2223   1.452       .  S
C2221      N2228   1.153       .  T
C2222      N2227   1.157       .  T
C2223      N2225   1.158       .  T
C2224      N3246   1.152       .  T
N2226      C3244   1.152       .  T
C2229      C2230   1.414       .  A
C2229      C2234   1.404       .  A
C2230      C2231   1.407       .  A
C2230      C2235   1.440       .  S
C2231      C2232   1.411       .  A
C2231      C2238   1.454       .  S
C2232      C2233   1.429       .  A
C2233      C2234   1.422       .  A
C2233      C2236   1.445       .  S
C2234      C2237   1.451       .  S
C2235      N2242   1.152       .  T
C2236      N2241   1.156       .  T
C2237      N2239   1.157       .  T
C2238      N2240   1.157       .  T
C2243      C2244   1.417       .  A
C2243      C2248   1.410       .  A
C2244      C2245   1.420       .  A
C2244      C2249   1.450       .  S
C2245      C2246   1.414       .  A
C2245      C2252   1.449       .  S
C2246      C2247   1.417       .  A
C2247      C2248   1.404       .  A
C2247      C2250   1.447       .  S
C2248      C2251   1.455       .  S
C2249      N2256   1.157       .  T
C2250      N2255   1.154       .  T
C2251      N2253   1.157       .  T
C2252      N2254   1.157       .  T
C2257      C2768   1.412       .  A
C2257      C2262   1.416       .  A
C2258      C2767   1.412       .  A
C2258      C2259   1.412   1_556  A
C2258      C2263   1.455       .  S
C2259      C2260   1.420       .  A
C2259      C2266   1.434       .  S
C2260      C2261   1.428       .  A
C2261      C2772   1.432   1_554  A
C2261      C2264   1.447       .  S
C2262      C2771   1.432       .  A
C2262      C2265   1.449       .  S
C2263      N2780   1.157       .  T
C2264      N2269   1.157       .  T
C2265      N2267   1.157       .  T
C2266      N2268   1.150       .  T
N2270      C2773   1.157       .  T
C2271      C2782   1.419       .  A
C2271      C3296   1.405       .  A
C2272      C2781   1.419   1_554  A
C2272      C2273   1.412       .  A
C2272      C2277   1.451       .  S
C2273      C3294   1.412       .  A
C2273      C2280   1.449       .  S
C2274      C3293   1.412       .  A
C2274      C2785   1.417   1_554  A
C2275      C2784   1.417       .  A
C2275      C2276   1.409       .  A
C2275      C2278   1.448       .  S
C2276      C3291   1.405       .  A
C2276      C2279   1.449       .  S
C2277      N2284   1.158       .  T
C2278      N2283   1.157       .  T
C2279      N2281   1.158       .  T
C2280      N2282   1.157       .  T
C2285      C2286   1.421       .  A
C2285      C2290   1.408       .  A
C2286      C3307   1.408   1_545  A
C2286      C3311   1.450   1_545  S
C2287      C3306   1.408       .  A
C2287      C2288   1.403       .  A
C2287      C2294   1.451       .  S
C2288      C3309   1.417       .  A
C2289      C3308   1.417   1_545  A
C2289      C2290   1.415       .  A
C2289      C2292   1.448       .  S
C2290      C2293   1.449       .  S
C2291      C3306   1.450       .  S
C2291      N2298   1.156       .  T
C2292      N2297   1.157       .  T
C2293      N2295   1.157       .  T
C2294      N2296   1.157       .  T
C2299      C3129   1.505       .  S
C2299      C2300   1.407       .  A
C2299      C2304   1.423       .  A
C2300      C2301   1.398       .  A
C2300      C2305   1.441       .  S
C2301      C2302   1.414       .  A
C2301      C2308   1.453       .  S
C2302      C2303   1.419       .  A
C2303      C2304   1.422       .  A
C2303      C2306   1.451       .  S
C2304      C2307   1.449       .  S
C2305      N2312   1.156       .  T
C2306      N2311   1.157       .  T
C2307      N3329   1.157   1_545  T
C2308      N2310   1.157       .  T
N2309      C3327   1.157       .  T
C2313      C2314   1.413       .  A
C2313      C2318   1.424       .  A
C2314      C2315   1.406       .  A
C2314      C2319   1.456       .  S
C2315      C2316   1.418       .  A
C2315      C2322   1.447       .  S
C2316      C2317   1.412       .  A
C2317      C2318   1.422       .  A
C2317      C2320   1.451       .  S
C2318      C2321   1.448       .  S
C2319      N2326   1.157       .  T
C2320      N2325   1.157       .  T
C2321      N2323   1.157       .  T
C2322      N2324   1.158       .  T
C2327      C2328   1.407       .  A
C2327      C2332   1.420       .  A
C2328      C2329   1.407       .  A
C2328      C2333   1.451       .  S
C2329      C2330   1.425       .  A
C2329      C2336   1.453       .  S
C2330      C2331   1.412       .  A
C2331      C2332   1.420       .  A
C2331      C2334   1.449       .  S
C2332      C2335   1.450       .  S
C2333      N2340   1.156       .  T
C2334      N2339   1.157       .  T
C2335      N2337   1.157       .  T
C2336      N2338   1.157       .  T
C2341      C2342   1.421       .  A
C2341      C2346   1.418       .  A
C2342      C2343   1.411       .  A
C2342      C2347   1.450   1_655  S
C2343      C2344   1.420       .  A
C2343      C2350   1.455       .  S
C2344      C2345   1.408       .  A
C2345      C2346   1.412       .  A
C2345      C2348   1.446       .  S
C2346      C2349   1.448       .  S
C2348      N2353   1.157       .  T
C2349      N2351   1.157   1_655  T
C2350      N2352   1.158       .  T
C2356      C2867   1.414       .  A
C2356      C2361   1.450       .  S
C2357      C2866   1.414   1_554  A
C2357      C2358   1.419       .  A
C2357      C2364   1.445       .  S
C2358      C2359   1.419       .  A
C2359      C2870   1.396   1_554  A
C2359      C2362   1.453       .  S
C2360      C2869   1.396       .  A
C2362      N2367   1.156       .  T
C2363      N2365   1.156       .  T
C2364      N2366   1.157       .  T
C2369      C2370   1.428       .  A
C2369      C2374   1.424       .  A
C2371      C2372   1.415       .  A
C2371      C2378   1.456       .  S
C2373      C2374   1.430       .  A
C2373      C2376   1.450       .  S
C2374      C2377   1.449       .  S
C2375      N2382   1.157       .  T
C2376      N2381   1.157       .  T
C2377      N2379   1.157       .  T
C2378      N2380   1.158       .  T
C2383      C2384   1.427       .  A
C2383      C2388   1.420       .  A
C2384      C2895   1.424       .  A
C2384      C2389   1.449       .  S
C2385      C2894   1.424       .  A
C2385      C3406   1.412   1_545  A
C2385      C2392   1.449       .  S
C2386      C3405   1.412       .  A
C2386      C2387   1.412       .  A
C2387      C3918   1.402   1_554  A
C2387      C2390   1.450       .  S
C2388      C3917   1.402   1_545  A
C2388      C2391   1.452       .  S
C2389      N2396   1.157       .  T
C2390      N2395   1.155       .  T
C2391      N2393   1.157   1_545  T
C2392      N2394   1.157       .  T
C2397      C3418   1.406       .  A
C2397      C2402   1.417       .  A
C2398      C3417   1.406   1_545  A
C2398      C2399   1.394       .  A
C2398      C2403   1.439       .  S
C2399      C2400   1.408       .  A
C2399      C2406   1.454       .  S
C2400      C2401   1.417   1_545  A
C2401      C3422   1.426       .  A
C2401      C2404   1.447       .  S
C2402      C3421   1.426       .  A
C2402      C2405   1.448       .  S
C2403      N2410   1.154       .  T
C2404      N2409   1.157       .  T
C2405      N2407   1.157       .  T
C2406      N2408   1.155       .  T
C2411      C2412   1.429       .  A
C2411      C2416   1.411       .  A
C2412      C2413   1.411       .  A
C2412      C2417   1.451       .  S
C2413      C2414   1.418       .  A
C2413      C2420   1.458       .  S
C2414      C2415   1.420       .  A
C2415      C2416   1.414       .  A
C2415      C2418   1.445       .  S
C2416      C2419   1.448       .  S
C2417      N2424   1.156       .  T
C2418      N2423   1.155       .  T
C2419      N2421   1.156       .  T
C2420      N2422   1.158       .  T
C2425      C2426   1.421       .  A
C2425      C2430   1.415       .  A
C2426      C2427   1.419       .  A
C2426      C2431   1.450       .  S
C2427      C2428   1.412       .  A
C2427      C2434   1.451       .  S
C2428      C2429   1.418       .  A
C2429      C2430   1.416       .  A
C2429      C2432   1.447       .  S
C2430      C2433   1.453       .  S
C2431      N2438   1.157       .  T
C2432      N2437   1.156       .  T
C2433      N2435   1.158       .  T
C2434      N2436   1.157       .  T
C2439      C2954   1.414       .  A
C2440      C2441   1.416       .  A
C2440      C2445   1.450       .  S
C2441      C2952   1.427   1_554  A
C2441      C2448   1.452       .  S
C2442      C2951   1.427       .  A
C2443      C2444   1.413       .  A
C2443      C2446   1.447       .  S
C2444      C2949   1.414       .  A
C2444      C2447   1.449       .  S
C2445      N2452   1.157       .  T
C2446      N2451   1.157       .  T
C2447      N2449   1.156       .  T
C2448      N2450   1.158       .  T
C2453      C2454   1.418       .  A
C2454      C2459   1.449       .  S
C2455      C2456   1.418       .  A
C2455      C2462   1.454       .  S
C2456      C2457   1.421       .  A
C2457      C2458   1.406       .  A
C2457      C2460   1.450       .  S
C2458      C2461   1.456       .  S
C2459      N2466   1.156       .  T
C2460      N2465   1.157       .  T
C2461      N2463   1.157       .  T
C2462      N2464   1.158       .  T
C2467      C3099   1.518       .  S
C2467      C2468   1.424       .  A
C2467      C2472   1.427       .  A
C2468      C2469   1.420       .  A
C2468      C2473   1.452       .  S
C2469      C2470   1.419       .  A
C2469      C2476   1.451       .  S
C2470      C2471   1.419       .  A
C2471      C2472   1.411       .  A
C2471      C2474   1.457       .  S
C2472      C3495   1.451       .  S
C2473      N2480   1.157       .  T
C2474      N2479   1.157       .  T
C2475      C3492   1.451   1_545  S
C2475      N2477   1.157       .  T
C2476      N2478   1.157       .  T
C2481      C2482   1.414       .  A
C2481      C2486   1.413       .  A
C2482      C2483   1.414       .  A
C2482      C2487   1.453       .  S
C2483      C2484   1.424       .  A
C2483      C2490   1.452       .  S
C2484      C2485   1.422       .  A
C2485      C2486   1.407       .  A
C2485      C2488   1.455       .  S
C2486      C2489   1.448       .  S
C2487      N2494   1.157       .  T
C2488      N2493   1.158       .  T
C2489      N2491   1.155       .  T
C2490      N2492   1.158       .  T
C2495      C3157   1.494       .  S
C2495      C2496   1.413       .  A
C2495      C2500   1.406       .  A
C2496      C2497   1.417       .  A
C2496      C2501   1.443       .  S
C2497      C2498   1.422       .  A
C2497      C2504   1.450       .  S
C2498      C2499   1.424       .  A
C2499      C2500   1.409       .  A
C2499      C2502   1.446       .  S
C2500      C3523   1.444       .  S
C2501      N2508   1.154       .  T
C2503      C3520   1.444   1_545  S
C2503      N2505   1.156       .  T
C2504      N2506   1.157       .  T
C2509      C2510   1.420       .  A
C2509      C2514   1.418       .  A
C2510      C2511   1.410       .  A
C2510      C2515   1.451       .  S
C2511      C2512   1.420       .  A
C2511      C2518   1.454       .  S
C2512      C2513   1.419       .  A
C2513      C2514   1.407       .  A
C2513      C2516   1.450       .  S
C2514      C2517   1.455       .  S
C2515      N2522   1.157       .  T
C2516      N2521   1.156       .  T
C2517      N2519   1.158       .  T
C2518      N2520   1.158       .  T
C2523      C2524   1.411       .  A
C2523      C2528   1.417       .  A
C2524      C2525   1.417       .  A
C2524      C2529   1.449       .  S
C2525      C3036   1.415       .  A
C2525      C2532   1.450       .  S
C2526      C3035   1.415       .  A
C2526      C2527   1.412       .  A
C2527      C3038   1.392   1_554  A
C2527      C2530   1.457       .  S
C2528      C3037   1.392       .  A
C2528      C2531   1.456       .  S
C2529      N2536   1.158       .  T
C2530      N2535   1.157       .  T
C2531      N3043   1.156       .  T
C2532      N2534   1.157       .  T
N2533      C3041   1.156       .  T
C2537      C2538   1.415       .  A
C2537      C2542   1.422       .  A
C2538      C2539   1.416       .  A
C2538      C2543   1.448       .  S
C2539      C2540   1.421       .  A
C2539      C2546   1.452       .  S
C2540      C2541   1.416       .  A
C2541      C2542   1.414       .  A
C2541      C2544   1.454       .  S
C2542      C2545   1.451       .  S
C2543      N2550   1.156       .  T
C2544      N2549   1.158       .  T
C2545      N2547   1.157       .  T
C2546      N2548   1.157       .  T
O2551      C2559   1.258       .  A
O2551     Co2571   1.892       .  S
O2552      C2560   1.249       .  A
O2552     Co2572   1.949       .  S
O2553      C2561   1.262       .  A
O2553     Co2573   2.035       .  S
O2554      C2562   1.282   1_455  A
O2554     Co2574   2.035   1_455  S
O2555      C2561   1.240       .  A
O2555     Co2572   1.911       .  S
O2556      C2562   1.268       .  A
O2556     Co2571   1.976       .  S
O2557      C2560   1.270       .  A
O2557     Co2574   2.042       .  S
O2558      C2559   1.293       .  A
O2558     Co2573   2.109       .  S
C2559      C2980   1.509       .  S
C2560      C2952   1.505       .  S
C2561      C3033   1.479       .  S
O2563      C2576   1.259       .  A
O2563     Co2571   1.984       .  S
O2564      C2577   1.275       .  A
O2564     Co2572   2.018       .  S
O2565      C2578   1.266       .  A
O2565     Co2573   1.895       .  S
O2566      C2579   1.264       .  A
O2566     Co2574   1.956       .  S
O2567      C2579   1.273       .  A
O2567     Co2572   2.014       .  S
O2568      C2578   1.301       .  A
O2568     Co2571   2.110       .  S
O2569      C2576   1.252       .  A
O2569     Co2574   1.968       .  S
O2570      C2577   1.259       .  A
O2570     Co2573   1.950       .  S
Co2571     O2575   2.002       .  S
Co2572     O2575   1.993       .  S
Co2573     O2575   2.049       .  S
Co2574     O2575   2.047       .  S
C2576      C2963   1.493       .  S
C2577      C3019   1.497       .  S
C2578      C3047   1.506       .  S
C2579      C2991   1.492       .  S
O2580      C2588   1.255       .  A
O2580     Co2600   1.979       .  S
O2581      C2589   1.260       .  A
O2581     Co2601   1.957       .  S
O2582      C2590   1.305       .  A
O2583      C2591   1.269       .  A
O2583     Co2603   2.037       .  S
O2584     Co2601   1.869       .  S
O2585      C2591   1.254       .  A
O2585     Co2600   1.921       .  S
O2586      C2589   1.280       .  A
O2586     Co2603   2.047       .  S
O2587      C2588   1.264       .  A
O2587     Co2602   2.041       .  S
C2588      C2882   1.516       .  S
C2589      C3997   1.518   1_545  S
C2590      C2921   1.512       .  S
C2591      C2910   1.493       .  S
O2592      C2605   1.278       .  A
O2592     Co2600   2.035       .  S
O2593      C2606   1.297       .  A
O2593     Co2601   2.092       .  S
O2594      C2607   1.263       .  A
O2594     Co2602   1.968       .  S
O2595      C2608   1.255       .  A
O2595     Co2603   1.983       .  S
O2596      C2608   1.259       .  A
O2596     Co2601   1.994       .  S
O2597      C2607   1.272       .  A
O2597     Co2600   2.002       .  S
O2598      C2605   1.261       .  A
O2598     Co2603   1.963       .  S
O2599      C2606   1.264       .  A
O2599     Co2602   1.888       .  S
Co2600     O2604   2.011       .  S
Co2601     O2604   1.977       .  S
Co2602     O2604   2.050       .  S
Co2603     O2604   2.078       .  S
C2605      C2935   1.506       .  S
C2606      C2865   1.476   1_655  S
C2607      C2994   1.504       .  S
C2608      C2893   1.511       .  S
O2609      C2617   1.295       .  A
O2609     Co2629   2.098       .  S
O2610      C2618   1.268       .  A
O2610     Co2630   2.013       .  S
O2611      C2619   1.257       .  A
O2611     Co2631   1.949       .  S
O2612      C2620   1.256       .  A
O2612     Co2632   1.965       .  S
O2613      C2619   1.287       .  A
O2613     Co2630   2.074       .  S
O2614      C2620   1.267       .  A
O2614     Co2629   2.031       .  S
O2615      C2618   1.260       .  A
O2615     Co2632   1.965       .  S
O2616      C2617   1.265       .  A
O2616     Co2631   1.905       .  S
C2618      C2784   1.487       .  S
C2619      C3829   1.505       .  S
C2620      C2949   1.493       .  S
O2621      C2634   1.265       .  A
O2621     Co2629   1.974       .  S
O2622      C2635   1.241       .  A
O2622     Co2630   1.952       .  S
O2623      C2636   1.290       .  A
O2623     Co2631   2.074       .  S
O2624      C2637   1.275       .  A
O2624     Co2632   2.027       .  S
O2625      C2637   1.256       .  A
O2625     Co2630   1.959       .  S
O2626      C2636   1.268       .  A
O2626     Co2629   1.902       .  S
O2627      C2634   1.278       .  A
O2627     Co2632   2.022       .  S
O2628      C2635   1.267       .  A
O2628     Co2631   2.038       .  S
Co2629     O2633   2.037       .  S
Co2630     O2633   2.044       .  S
Co2631     O2633   2.015       .  S
Co2632     O2633   2.031       .  S
C2634      C2823   1.507       .  S
C2635      C2798   1.486       .  S
C2636      C2966   1.496       .  S
C2637      C2837   1.493       .  S
O2638      C2646   1.267       .  A
O2638     Co2658   1.912       .  S
O2639      C2647   1.250       .  A
O2639     Co2659   1.950       .  S
O2640      C2648   1.267       .  A
O2640     Co2660   2.041       .  S
O2641      C2649   1.278       .  A
O2641     Co2661   2.022       .  S
O2642      C2648   1.244       .  A
O2642     Co2659   1.941       .  S
O2643      C2649   1.272       .  A
O2643     Co2658   1.983       .  S
O2644      C2647   1.277       .  A
O2644     Co2661   2.061       .  S
O2645      C2646   1.292       .  A
O2645     Co2660   2.080       .  S
C2646      C2753   1.489       .  S
C2647      C4025   1.494   1_545  S
C2648      C2795   1.489       .  S
C2649      C2924   1.507       .  S
O2650      C2663   1.262       .  A
O2650     Co2658   2.034       .  S
O2651      C2664   1.276       .  A
O2651     Co2659   2.044       .  S
O2652      C2665   1.268       .  A
O2652     Co2660   1.886       .  S
O2653      C2666   1.255       .  A
O2653     Co2661   1.957       .  S
O2654      C2666   1.276       .  A
O2654     Co2659   2.034       .  S
O2655      C2665   1.296       .  A
O2655     Co2658   2.085       .  S
O2656      C2663   1.257       .  A
O2656     Co2661   1.971       .  S
O2657      C2664   1.264       .  A
O2657     Co2660   1.981       .  S
Co2658     O2662   2.041       .  S
Co2659     O2662   2.037       .  S
Co2660     O2662   2.018       .  S
Co2661     O2662   2.025       .  S
C2663      C2767   1.513       .  S
C2664      C2938   1.501       .  S
C2665      C3022   1.499       .  S
C2666      C2781   1.499       .  S
O2667      C2675   1.261       .  A
O2667     Co2687   2.021       .  S
O2668      C2676   1.275       .  A
O2668     Co2688   2.056       .  S
O2669      C2677   1.241       .  A
O2669     Co2689   1.893       .  S
O2670      C2678   1.265       .  A
O2670     Co2690   1.881       .  S
O2671      C2677   1.272       .  A
O2671     Co2688   2.054       .  S
O2672      C2678   1.301       .  A
O2672     Co2687   2.123       .  S
O2673      C2676   1.267       .  A
O2673     Co2690   1.990       .  S
O2674      C2675   1.245       .  A
O2674     Co2689   1.958       .  S
C2676      C2770   1.538       .  S
C2677      C2868   1.483       .  S
C2678      C2812   1.495       .  S
O2679      C2692   1.265       .  A
O2679     Co2687   1.880       .  S
O2680      C2693   1.245       .  A
O2680     Co2688   1.938       .  S
O2681      C2694   1.275       .  A
O2681     Co2689   2.018       .  S
O2682      C2695   1.266       .  A
O2682     Co2690   2.046       .  S
O2683      C2695   1.244       .  A
O2683     Co2688   1.953       .  S
O2684      C2694   1.273       .  A
O2684     Co2687   2.000       .  S
O2685      C2692   1.302       .  A
O2685     Co2690   2.115       .  S
O2686      C2693   1.275       .  A
O2686     Co2689   2.061       .  S
Co2687     O2691   2.044       .  S
Co2688     O2691   2.058       .  S
Co2689     O2691   2.049       .  S
Co2690     O2691   2.039       .  S
C2692      C2756   1.495       .  S
C2693      C2826   1.492       .  S
C2694      C2879   1.529       .  S
C2695      C2739   1.494       .  S
O2696      C2704   1.249       .  A
O2696     Co2716   1.975       .  S
O2697      C2705   1.264       .  A
O2697     Co2717   1.965       .  S
O2698      C2706   1.274       .  A
O2698     Co2718   2.037       .  S
O2699      C2707   1.240       .  A
O2699     Co2719   1.966       .  S
O2700      C2706   1.246       .  A
O2700     Co2717   1.904       .  S
O2701      C2707   1.257       .  A
O2701     Co2716   2.000       .  S
O2702      C2705   1.273       .  A
O2702     Co2719   2.023       .  S
O2703      C2704   1.251       .  A
O2703     Co2718   1.993       .  S
C2704      C2854   1.507       .  S
C2705      C2896   1.501       .  S
C2706      C3036   1.463       .  S
C2707      C3748   1.500       .  S
O2708      C2721   1.289       .  A
O2708     Co2716   2.044       .  S
O2709      C2722   1.272       .  A
O2709     Co2717   2.030       .  S
O2710      C2723   1.278       .  A
O2710     Co2718   1.906       .  S
O2711      C2724   1.267       .  A
O2711     Co2719   2.005       .  S
O2712      C2724   1.258       .  A
O2712     Co2717   1.970       .  S
O2713      C2723   1.299       .  A
O2713     Co2716   2.048       .  S
O2714      C2721   1.277       .  A
O2714     Co2719   1.939       .  S
O2715      C2722   1.255       .  A
O2715     Co2718   1.984       .  S
Co2716     O2720   2.227       .  S
Co2717     O2720   2.062       .  S
Co2718     O2720   1.975       .  S
Co2719     O2720   1.991       .  S
C2721      C2907   1.488       .  S
C2722      C2742   1.503       .  S
C2723      C3050   1.503       .  S
C2724      C2840   1.500       .  S
C2725      C2726   1.404       .  A
C2725      C2730   1.420       .  A
C2726      C2727   1.406       .  A
C2727      C2728   1.409       .  A
C2727      C2734   1.438   1_545  S
C2728      C3727   1.500   1_545  S
C2728      C2729   1.418       .  A
C2729      C2730   1.415       .  A
C2729      C2732   1.450       .  S
C2730      C2733   1.452       .  S
C2731      N2738   1.153       .  T
C2732      N2737   1.157       .  T
C2733      N2735   1.158       .  T
C2734      N3756   1.152       .  T
N2736      C3754   1.152       .  T
C2739      C2740   1.414       .  A
C2739      C2744   1.404       .  A
C2740      C2741   1.407       .  A
C2740      C2745   1.440       .  S
C2741      C2742   1.411       .  A
C2741      C2748   1.454       .  S
C2742      C2743   1.429       .  A
C2743      C2744   1.422       .  A
C2743      C2746   1.445       .  S
C2744      C2747   1.451       .  S
C2745      N2752   1.152       .  T
C2746      N2751   1.156       .  T
C2747      N2749   1.157       .  T
C2748      N2750   1.157       .  T
C2753      C2754   1.417       .  A
C2753      C2758   1.410       .  A
C2754      C2755   1.420       .  A
C2754      C2759   1.450       .  S
C2755      C2756   1.414       .  A
C2755      C2762   1.449       .  S
C2756      C2757   1.417       .  A
C2757      C2758   1.404       .  A
C2757      C2760   1.447       .  S
C2758      C2761   1.455       .  S
C2759      N2766   1.157       .  T
C2760      N2765   1.154       .  T
C2761      N2763   1.157       .  T
C2762      N2764   1.157       .  T
C2767      C2772   1.416       .  A
C2768      C2769   1.412       .  A
C2768      C2773   1.455       .  S
C2769      C2770   1.420       .  A
C2769      C2776   1.434       .  S
C2770      C2771   1.428       .  A
C2771      C2774   1.447       .  S
C2772      C2775   1.449       .  S
C2774      N2779   1.157       .  T
C2775      N2777   1.157       .  T
C2776      N2778   1.150       .  T
C2781      C3806   1.405       .  A
C2782      C2783   1.412       .  A
C2782      C2787   1.451       .  S
C2783      C3804   1.412       .  A
C2783      C2790   1.449       .  S
C2784      C3803   1.412       .  A
C2785      C2786   1.409       .  A
C2785      C2788   1.448       .  S
C2786      C3801   1.405       .  A
C2786      C2789   1.449       .  S
C2787      N2794   1.158       .  T
C2788      N2793   1.157       .  T
C2789      N2791   1.158       .  T
C2790      N2792   1.157       .  T
C2795      C2796   1.421       .  A
C2795      C2800   1.408       .  A
C2796      C3817   1.408   1_545  A
C2796      C3821   1.450   1_545  S
C2797      C3816   1.408       .  A
C2797      C2798   1.403       .  A
C2797      C2804   1.451       .  S
C2798      C3819   1.417       .  A
C2799      C3818   1.417   1_545  A
C2799      C2800   1.415       .  A
C2799      C2802   1.448       .  S
C2800      C2803   1.449       .  S
C2801      C3816   1.450       .  S
C2801      N2808   1.156       .  T
C2802      N2807   1.157       .  T
C2803      N2805   1.157       .  T
C2804      N2806   1.157       .  T
C2809      C3639   1.505       .  S
C2809      C2810   1.407       .  A
C2809      C2814   1.423       .  A
C2810      C2811   1.398       .  A
C2810      C2815   1.441       .  S
C2811      C2812   1.414       .  A
C2811      C2818   1.453       .  S
C2812      C2813   1.419       .  A
C2813      C2814   1.422       .  A
C2813      C2816   1.451       .  S
C2814      C2817   1.449       .  S
C2815      N2822   1.156       .  T
C2816      N2821   1.157       .  T
C2817      N3839   1.157   1_545  T
C2818      N2820   1.157       .  T
N2819      C3837   1.157       .  T
C2823      C2824   1.413       .  A
C2823      C2828   1.424       .  A
C2824      C2825   1.406       .  A
C2824      C2829   1.456       .  S
C2825      C2826   1.418       .  A
C2825      C2832   1.447       .  S
C2826      C2827   1.412       .  A
C2827      C2828   1.422       .  A
C2827      C2830   1.451       .  S
C2828      C2831   1.448       .  S
C2829      N2836   1.157       .  T
C2830      N2835   1.157       .  T
C2831      N2833   1.157       .  T
C2832      N2834   1.158       .  T
C2837      C2838   1.407       .  A
C2837      C2842   1.420       .  A
C2838      C2839   1.407       .  A
C2838      C2843   1.451       .  S
C2839      C2840   1.425       .  A
C2839      C2846   1.453       .  S
C2840      C2841   1.412       .  A
C2841      C2842   1.420       .  A
C2841      C2844   1.449       .  S
C2842      C2845   1.450       .  S
C2843      N2850   1.156       .  T
C2844      N2849   1.157       .  T
C2845      N2847   1.157       .  T
C2846      N2848   1.157       .  T
C2851      C2852   1.421       .  A
C2851      C2856   1.418       .  A
C2852      C2853   1.411       .  A
C2852      C2857   1.450   1_655  S
C2853      C2854   1.420       .  A
C2853      C2860   1.455       .  S
C2854      C2855   1.408       .  A
C2855      C2856   1.412       .  A
C2855      C2858   1.446       .  S
C2856      C2859   1.448       .  S
C2858      N2863   1.157       .  T
C2859      N2861   1.157   1_655  T
C2860      N2862   1.158       .  T
C2866      C2871   1.450       .  S
C2867      C2868   1.419       .  A
C2867      C2874   1.445       .  S
C2868      C2869   1.419       .  A
C2869      C2872   1.453       .  S
C2872      N2877   1.156       .  T
C2873      N2875   1.156       .  T
C2874      N2876   1.157       .  T
C2879      C2880   1.428       .  A
C2879      C2884   1.424       .  A
C2881      C2882   1.415       .  A
C2881      C2888   1.456       .  S
C2883      C2884   1.430       .  A
C2883      C2886   1.450       .  S
C2884      C2887   1.449       .  S
C2885      N2892   1.157       .  T
C2886      N2891   1.157       .  T
C2887      N2889   1.157       .  T
C2888      N2890   1.158       .  T
C2893      C2894   1.427   1_556  A
C2893      C2898   1.420       .  A
C2894      C2899   1.449   1_554  S
C2895      C3916   1.412   1_545  A
C2895      C2902   1.449       .  S
C2896      C3915   1.412       .  A
C2896      C2897   1.412       .  A
C2897      C3408   1.402       .  A
C2897      C2900   1.450       .  S
C2898      C3407   1.402   1_546  A
C2898      C2901   1.452       .  S
C2899      N2906   1.157       .  T
C2900      N2905   1.155       .  T
C2901      N2903   1.157   1_545  T
C2902      N2904   1.157       .  T
C2907      C3928   1.406       .  A
C2907      C2912   1.417       .  A
C2908      C3927   1.406   1_545  A
C2908      C2909   1.394       .  A
C2908      C2913   1.439       .  S
C2909      C2910   1.408       .  A
C2909      C2916   1.454       .  S
C2910      C2911   1.417   1_545  A
C2911      C3932   1.426       .  A
C2911      C2914   1.447       .  S
C2912      C3931   1.426       .  A
C2912      C2915   1.448       .  S
C2913      N2920   1.154       .  T
C2914      N2919   1.157       .  T
C2915      N2917   1.157       .  T
C2916      N2918   1.155       .  T
C2921      C2922   1.429       .  A
C2921      C2926   1.411       .  A
C2922      C2923   1.411       .  A
C2922      C2927   1.451       .  S
C2923      C2924   1.418       .  A
C2923      C2930   1.458       .  S
C2924      C2925   1.420       .  A
C2925      C2926   1.414       .  A
C2925      C2928   1.445       .  S
C2926      C2929   1.448       .  S
C2927      N2934   1.156       .  T
C2928      N2933   1.155       .  T
C2929      N2931   1.156       .  T
C2930      N2932   1.158       .  T
C2935      C2936   1.421       .  A
C2935      C2940   1.415       .  A
C2936      C2937   1.419       .  A
C2936      C2941   1.450       .  S
C2937      C2938   1.412       .  A
C2937      C2944   1.451       .  S
C2938      C2939   1.418       .  A
C2939      C2940   1.416       .  A
C2939      C2942   1.447       .  S
C2940      C2943   1.453       .  S
C2941      N2948   1.157       .  T
C2942      N2947   1.156       .  T
C2943      N2945   1.158       .  T
C2944      N2946   1.157       .  T
C2950      C2951   1.416       .  A
C2950      C2955   1.450       .  S
C2951      C2958   1.452       .  S
C2953      C2954   1.413   1_556  A
C2953      C2956   1.447       .  S
C2954      C2957   1.449       .  S
C2955      N2962   1.157       .  T
C2956      N2961   1.157       .  T
C2957      N2959   1.156       .  T
C2958      N2960   1.158       .  T
C2963      C2964   1.418       .  A
C2964      C2969   1.449       .  S
C2965      C2966   1.418       .  A
C2965      C2972   1.454       .  S
C2966      C2967   1.421       .  A
C2967      C2968   1.406       .  A
C2967      C2970   1.450       .  S
C2968      C2971   1.456       .  S
C2969      N2976   1.156       .  T
C2970      N2975   1.157       .  T
C2971      N2973   1.157       .  T
C2972      N2974   1.158       .  T
C2977      C3609   1.518       .  S
C2977      C2978   1.424       .  A
C2977      C2982   1.427       .  A
C2978      C2979   1.420       .  A
C2978      C2983   1.452       .  S
C2979      C2980   1.419       .  A
C2979      C2986   1.451       .  S
C2980      C2981   1.419       .  A
C2981      C2982   1.411       .  A
C2981      C2984   1.457       .  S
C2982      C4005   1.451       .  S
C2983      N2990   1.157       .  T
C2984      N2989   1.157       .  T
C2985      C4002   1.451   1_545  S
C2985      N2987   1.157       .  T
C2986      N2988   1.157       .  T
C2991      C2992   1.414       .  A
C2991      C2996   1.413       .  A
C2992      C2993   1.414       .  A
C2992      C2997   1.453       .  S
C2993      C2994   1.424       .  A
C2993      C3000   1.452       .  S
C2994      C2995   1.422       .  A
C2995      C2996   1.407       .  A
C2995      C2998   1.455       .  S
C2996      C2999   1.448       .  S
C2997      N3004   1.157       .  T
C2998      N3003   1.158       .  T
C2999      N3001   1.155       .  T
C3000      N3002   1.158       .  T
C3005      C3667   1.494       .  S
C3005      C3006   1.413       .  A
C3005      C3010   1.406       .  A
C3006      C3007   1.417       .  A
C3006      C3011   1.443       .  S
C3007      C3008   1.422       .  A
C3007      C3014   1.450       .  S
C3008      C3009   1.424       .  A
C3009      C3010   1.409       .  A
C3009      C3012   1.446       .  S
C3010      C4033   1.444       .  S
C3011      N3018   1.154       .  T
C3013      C4030   1.444   1_545  S
C3013      N3015   1.156       .  T
C3014      N3016   1.157       .  T
C3019      C3020   1.420       .  A
C3019      C3024   1.418       .  A
C3020      C3021   1.410       .  A
C3020      C3025   1.451       .  S
C3021      C3022   1.420       .  A
C3021      C3028   1.454       .  S
C3022      C3023   1.419       .  A
C3023      C3024   1.407       .  A
C3023      C3026   1.450       .  S
C3024      C3027   1.455       .  S
C3025      N3032   1.157       .  T
C3026      N3031   1.156       .  T
C3027      N3029   1.158       .  T
C3028      N3030   1.158       .  T
C3033      C3034   1.411       .  A
C3033      C3038   1.417       .  A
C3034      C3035   1.417   1_556  A
C3034      C3039   1.449       .  S
C3035      C3042   1.450       .  S
C3036      C3037   1.412       .  A
C3037      C3040   1.457       .  S
C3038      C3041   1.456       .  S
C3039      N3046   1.158       .  T
C3040      N3045   1.157       .  T
C3042      N3044   1.157       .  T
C3047      C3048   1.415       .  A
C3047      C3052   1.422       .  A
C3048      C3049   1.416       .  A
C3048      C3053   1.448       .  S
C3049      C3050   1.421       .  A
C3049      C3056   1.452       .  S
C3050      C3051   1.416       .  A
C3051      C3052   1.414       .  A
C3051      C3054   1.454       .  S
C3052      C3055   1.451       .  S
C3053      N3060   1.156       .  T
C3054      N3059   1.158       .  T
C3055      N3057   1.157       .  T
C3056      N3058   1.157       .  T
O3061      C3069   1.258       .  A
O3061     Co3081   1.892       .  S
O3062      C3070   1.249       .  A
O3062     Co3082   1.949       .  S
O3063      C3071   1.262       .  A
O3063     Co3083   2.035       .  S
O3064      C3072   1.282   1_455  A
O3064     Co3084   2.035   1_455  S
O3065      C3071   1.240       .  A
O3065     Co3082   1.911       .  S
O3066      C3072   1.268       .  A
O3066     Co3081   1.976       .  S
O3067      C3070   1.270       .  A
O3067     Co3084   2.042       .  S
O3068      C3069   1.293       .  A
O3068     Co3083   2.109       .  S
C3069      C3490   1.509       .  S
C3070      C3462   1.505       .  S
C3071      C3543   1.479       .  S
O3073      C3086   1.259       .  A
O3073     Co3081   1.984       .  S
O3074      C3087   1.275       .  A
O3074     Co3082   2.018       .  S
O3075      C3088   1.266       .  A
O3075     Co3083   1.895       .  S
O3076      C3089   1.264       .  A
O3076     Co3084   1.956       .  S
O3077      C3089   1.273       .  A
O3077     Co3082   2.014       .  S
O3078      C3088   1.301       .  A
O3078     Co3081   2.110       .  S
O3079      C3086   1.252       .  A
O3079     Co3084   1.968       .  S
O3080      C3087   1.259       .  A
O3080     Co3083   1.950       .  S
Co3081     O3085   2.002       .  S
Co3082     O3085   1.993       .  S
Co3083     O3085   2.049       .  S
Co3084     O3085   2.047       .  S
C3086      C3473   1.493       .  S
C3087      C3529   1.497       .  S
C3088      C3557   1.506       .  S
C3089      C3501   1.492       .  S
O3090      C3098   1.255       .  A
O3090     Co3110   1.979       .  S
O3091      C3099   1.260       .  A
O3091     Co3111   1.957       .  S
O3092      C3100   1.305       .  A
O3093      C3101   1.269       .  A
O3093     Co3113   2.037       .  S
O3094     Co3111   1.869       .  S
O3095      C3101   1.254       .  A
O3095     Co3110   1.921       .  S
O3096      C3099   1.280       .  A
O3096     Co3113   2.047       .  S
O3097      C3098   1.264       .  A
O3097     Co3112   2.041       .  S
C3098      C3392   1.516       .  S
C3100      C3431   1.512       .  S
C3101      C3420   1.493       .  S
O3102      C3115   1.278       .  A
O3102     Co3110   2.035       .  S
O3103      C3116   1.297       .  A
O3103     Co3111   2.092       .  S
O3104      C3117   1.263       .  A
O3104     Co3112   1.968       .  S
O3105      C3118   1.255       .  A
O3105     Co3113   1.983       .  S
O3106      C3118   1.259       .  A
O3106     Co3111   1.994       .  S
O3107      C3117   1.272       .  A
O3107     Co3110   2.002       .  S
O3108      C3115   1.261       .  A
O3108     Co3113   1.963       .  S
O3109      C3116   1.264       .  A
O3109     Co3112   1.888       .  S
Co3110     O3114   2.011       .  S
Co3111     O3114   1.977       .  S
Co3112     O3114   2.050       .  S
Co3113     O3114   2.078       .  S
C3115      C3445   1.506       .  S
C3116      C3375   1.476   1_655  S
C3117      C3504   1.504       .  S
C3118      C3403   1.511       .  S
O3119      C3127   1.295       .  A
O3119     Co3139   2.098       .  S
O3120      C3128   1.268       .  A
O3120     Co3140   2.013       .  S
O3121      C3129   1.257   1_565  A
O3121     Co3141   1.949       .  S
O3122      C3130   1.256       .  A
O3122     Co3142   1.965       .  S
O3123      C3129   1.287       .  A
O3123     Co3140   2.074   1_545  S
O3124      C3130   1.267       .  A
O3124     Co3139   2.031       .  S
O3125      C3128   1.260       .  A
O3125     Co3142   1.965       .  S
O3126      C3127   1.265       .  A
O3126     Co3141   1.905       .  S
C3128      C3294   1.487   1_565  S
C3130      C3459   1.493       .  S
O3131      C3144   1.265       .  A
O3131     Co3139   1.974       .  S
O3132      C3145   1.241       .  A
O3132     Co3140   1.952       .  S
O3133      C3146   1.290       .  A
O3133     Co3141   2.074       .  S
O3134      C3147   1.275       .  A
O3134     Co3142   2.027       .  S
O3135      C3147   1.256       .  A
O3135     Co3140   1.959       .  S
O3136      C3146   1.268       .  A
O3136     Co3139   1.902       .  S
O3137      C3144   1.278       .  A
O3137     Co3142   2.022       .  S
O3138      C3145   1.267       .  A
O3138     Co3141   2.038       .  S
Co3139     O3143   2.037       .  S
Co3140     O3143   2.044       .  S
Co3141     O3143   2.015       .  S
Co3142     O3143   2.031       .  S
C3144      C3333   1.507       .  S
C3145      C3308   1.486       .  S
C3146      C3476   1.496       .  S
C3147      C3347   1.493       .  S
O3148      C3156   1.267       .  A
O3148     Co3168   1.912       .  S
O3149      C3157   1.250       .  A
O3149     Co3169   1.950       .  S
O3150      C3158   1.267       .  A
O3150     Co3170   2.041       .  S
O3151      C3159   1.278       .  A
O3151     Co3171   2.022       .  S
O3152      C3158   1.244       .  A
O3152     Co3169   1.941       .  S
O3153      C3159   1.272       .  A
O3153     Co3168   1.983       .  S
O3154      C3157   1.277       .  A
O3154     Co3171   2.061       .  S
O3155      C3156   1.292       .  A
O3155     Co3170   2.080       .  S
C3156      C3263   1.489       .  S
C3158      C3305   1.489       .  S
C3159      C3434   1.507       .  S
O3160      C3173   1.262       .  A
O3160     Co3168   2.034       .  S
O3161      C3174   1.276       .  A
O3161     Co3169   2.044       .  S
O3162      C3175   1.268       .  A
O3162     Co3170   1.886       .  S
O3163      C3176   1.255       .  A
O3163     Co3171   1.957       .  S
O3164      C3176   1.276       .  A
O3164     Co3169   2.034       .  S
O3165      C3175   1.296       .  A
O3165     Co3168   2.085       .  S
O3166      C3173   1.257       .  A
O3166     Co3171   1.971       .  S
O3167      C3174   1.264       .  A
O3167     Co3170   1.981       .  S
Co3168     O3172   2.041       .  S
Co3169     O3172   2.037       .  S
Co3170     O3172   2.018       .  S
Co3171     O3172   2.025       .  S
C3173      C3277   1.513       .  S
C3174      C3448   1.501       .  S
C3175      C3532   1.499       .  S
C3176      C3291   1.499       .  S
O3177      C3185   1.261       .  A
O3177     Co3197   2.021       .  S
O3178      C3186   1.275       .  A
O3178     Co3198   2.056       .  S
O3179      C3187   1.241       .  A
O3179     Co3199   1.893       .  S
O3180      C3188   1.265       .  A
O3180     Co3200   1.881       .  S
O3181      C3187   1.272       .  A
O3181     Co3198   2.054       .  S
O3182      C3188   1.301       .  A
O3182     Co3197   2.123       .  S
O3183      C3186   1.267       .  A
O3183     Co3200   1.990       .  S
O3184      C3185   1.245       .  A
O3184     Co3199   1.958       .  S
C3186      C3280   1.538       .  S
C3187      C3378   1.483       .  S
C3188      C3322   1.495       .  S
O3189      C3202   1.265       .  A
O3189     Co3197   1.880       .  S
O3190      C3203   1.245       .  A
O3190     Co3198   1.938       .  S
O3191      C3204   1.275       .  A
O3191     Co3199   2.018       .  S
O3192      C3205   1.266       .  A
O3192     Co3200   2.046       .  S
O3193      C3205   1.244       .  A
O3193     Co3198   1.953       .  S
O3194      C3204   1.273       .  A
O3194     Co3197   2.000       .  S
O3195      C3202   1.302       .  A
O3195     Co3200   2.115       .  S
O3196      C3203   1.275       .  A
O3196     Co3199   2.061       .  S
Co3197     O3201   2.044       .  S
Co3198     O3201   2.058       .  S
Co3199     O3201   2.049       .  S
Co3200     O3201   2.039       .  S
C3202      C3266   1.495       .  S
C3203      C3336   1.492       .  S
C3204      C3389   1.529       .  S
C3205      C3249   1.494       .  S
O3206      C3214   1.249       .  A
O3206     Co3226   1.975       .  S
O3207      C3215   1.264       .  A
O3207     Co3227   1.965       .  S
O3208      C3216   1.274       .  A
O3208     Co3228   2.037       .  S
O3209      C3217   1.240       .  A
O3209     Co3229   1.966       .  S
O3210      C3216   1.246       .  A
O3210     Co3227   1.904       .  S
O3211      C3217   1.257       .  A
O3211     Co3226   2.000       .  S
O3212      C3215   1.273       .  A
O3212     Co3229   2.023       .  S
O3213      C3214   1.251       .  A
O3213     Co3228   1.993       .  S
C3214      C3364   1.507       .  S
C3215      C3406   1.501       .  S
C3216      C3546   1.463       .  S
O3218      C3231   1.289       .  A
O3218     Co3226   2.044       .  S
O3219      C3232   1.272       .  A
O3219     Co3227   2.030       .  S
O3220      C3233   1.278       .  A
O3220     Co3228   1.906       .  S
O3221      C3234   1.267       .  A
O3221     Co3229   2.005       .  S
O3222      C3234   1.258       .  A
O3222     Co3227   1.970       .  S
O3223      C3233   1.299       .  A
O3223     Co3226   2.048       .  S
O3224      C3231   1.277       .  A
O3224     Co3229   1.939       .  S
O3225      C3232   1.255       .  A
O3225     Co3228   1.984       .  S
Co3226     O3230   2.227       .  S
Co3227     O3230   2.062       .  S
Co3228     O3230   1.975       .  S
Co3229     O3230   1.991       .  S
C3231      C3417   1.488       .  S
C3232      C3252   1.503       .  S
C3233      C3560   1.503       .  S
C3234      C3350   1.500       .  S
C3235      C3236   1.404       .  A
C3235      C3240   1.420       .  A
C3236      C3237   1.406       .  A
C3237      C3238   1.409       .  A
C3237      C3244   1.438       .  S
C3238      C3239   1.418       .  A
C3239      C3240   1.415       .  A
C3239      C3242   1.450       .  S
C3240      C3243   1.452       .  S
C3241      N3248   1.153       .  T
C3242      N3247   1.157       .  T
C3243      N3245   1.158       .  T
C3249      C3250   1.414       .  A
C3249      C3254   1.404       .  A
C3250      C3251   1.407       .  A
C3250      C3255   1.440       .  S
C3251      C3252   1.411       .  A
C3251      C3258   1.454       .  S
C3252      C3253   1.429       .  A
C3253      C3254   1.422       .  A
C3253      C3256   1.445       .  S
C3254      C3257   1.451       .  S
C3255      N3262   1.152       .  T
C3256      N3261   1.156       .  T
C3257      N3259   1.157       .  T
C3258      N3260   1.157       .  T
C3263      C3264   1.417       .  A
C3263      C3268   1.410       .  A
C3264      C3265   1.420       .  A
C3264      C3269   1.450       .  S
C3265      C3266   1.414       .  A
C3265      C3272   1.449       .  S
C3266      C3267   1.417       .  A
C3267      C3268   1.404       .  A
C3267      C3270   1.447       .  S
C3268      C3271   1.455       .  S
C3269      N3276   1.157       .  T
C3270      N3275   1.154       .  T
C3271      N3273   1.157       .  T
C3272      N3274   1.157       .  T
C3277      C3788   1.412       .  A
C3277      C3282   1.416       .  A
C3278      C3787   1.412       .  A
C3278      C3279   1.412   1_556  A
C3278      C3283   1.455       .  S
C3279      C3280   1.420       .  A
C3279      C3286   1.434       .  S
C3280      C3281   1.428       .  A
C3281      C3792   1.432   1_554  A
C3281      C3284   1.447       .  S
C3282      C3791   1.432       .  A
C3282      C3285   1.449       .  S
C3283      N3800   1.157       .  T
C3284      N3289   1.157       .  T
C3285      N3287   1.157       .  T
C3286      N3288   1.150       .  T
N3290      C3793   1.157       .  T
C3291      C3802   1.419       .  A
C3292      C3801   1.419   1_554  A
C3292      C3293   1.412       .  A
C3292      C3297   1.451       .  S
C3293      C3300   1.449       .  S
C3294      C3805   1.417   1_544  A
C3295      C3804   1.417   1_565  A
C3295      C3296   1.409   1_565  A
C3295      C3298   1.448       .  S
C3296      C3299   1.449   1_545  S
C3297      N3304   1.158       .  T
C3298      N3303   1.157       .  T
C3299      N3301   1.158       .  T
C3300      N3302   1.157       .  T
C3305      C3306   1.421       .  A
C3305      C3310   1.408       .  A
C3307      C3308   1.403       .  A
C3307      C3314   1.451       .  S
C3309      C3310   1.415       .  A
C3309      C3312   1.448       .  S
C3310      C3313   1.449       .  S
C3311      N3318   1.156       .  T
C3312      N3317   1.157       .  T
C3313      N3315   1.157       .  T
C3314      N3316   1.157       .  T
C3319      C3320   1.407       .  A
C3319      C3324   1.423       .  A
C3320      C3321   1.398       .  A
C3320      C3325   1.441       .  S
C3321      C3322   1.414       .  A
C3321      C3328   1.453       .  S
C3322      C3323   1.419       .  A
C3323      C3324   1.422       .  A
C3323      C3326   1.451       .  S
C3324      C3327   1.449       .  S
C3325      N3332   1.156       .  T
C3326      N3331   1.157       .  T
C3328      N3330   1.157       .  T
C3333      C3334   1.413       .  A
C3333      C3338   1.424       .  A
C3334      C3335   1.406       .  A
C3334      C3339   1.456       .  S
C3335      C3336   1.418       .  A
C3335      C3342   1.447       .  S
C3336      C3337   1.412       .  A
C3337      C3338   1.422       .  A
C3337      C3340   1.451       .  S
C3338      C3341   1.448       .  S
C3339      N3346   1.157       .  T
C3340      N3345   1.157       .  T
C3341      N3343   1.157       .  T
C3342      N3344   1.158       .  T
C3347      C3348   1.407       .  A
C3347      C3352   1.420       .  A
C3348      C3349   1.407       .  A
C3348      C3353   1.451       .  S
C3349      C3350   1.425       .  A
C3349      C3356   1.453       .  S
C3350      C3351   1.412       .  A
C3351      C3352   1.420       .  A
C3351      C3354   1.449       .  S
C3352      C3355   1.450       .  S
C3353      N3360   1.156       .  T
C3354      N3359   1.157       .  T
C3355      N3357   1.157       .  T
C3356      N3358   1.157       .  T
C3361      C3362   1.421       .  A
C3361      C3366   1.418       .  A
C3362      C3363   1.411       .  A
C3362      C3367   1.450   1_655  S
C3363      C3364   1.420       .  A
C3363      C3370   1.455       .  S
C3364      C3365   1.408       .  A
C3365      C3366   1.412       .  A
C3365      C3368   1.446       .  S
C3366      C3369   1.448       .  S
C3368      N3373   1.157       .  T
C3369      N3371   1.157   1_655  T
C3370      N3372   1.158       .  T
C3376      C3887   1.414       .  A
C3376      C3381   1.450       .  S
C3377      C3886   1.414   1_554  A
C3377      C3378   1.419       .  A
C3377      C3384   1.445       .  S
C3378      C3379   1.419       .  A
C3379      C3890   1.396   1_554  A
C3379      C3382   1.453       .  S
C3380      C3889   1.396       .  A
C3382      N3387   1.156       .  T
C3383      N3385   1.156       .  T
C3384      N3386   1.157       .  T
C3389      C3390   1.428       .  A
C3389      C3394   1.424       .  A
C3391      C3392   1.415       .  A
C3391      C3398   1.456       .  S
C3393      C3394   1.430       .  A
C3393      C3396   1.450       .  S
C3394      C3397   1.449       .  S
C3395      N3402   1.157       .  T
C3396      N3401   1.157       .  T
C3397      N3399   1.157       .  T
C3398      N3400   1.158       .  T
C3403      C3404   1.427       .  A
C3403      C3408   1.420       .  A
C3404      C3915   1.424       .  A
C3404      C3409   1.449       .  S
C3405      C3914   1.424       .  A
C3405      C3412   1.449       .  S
C3406      C3407   1.412       .  A
C3407      C3410   1.450       .  S
C3408      C3411   1.452       .  S
C3409      N3416   1.157       .  T
C3410      N3415   1.155       .  T
C3411      N3413   1.157       .  T
C3412      N3414   1.157       .  T
C3417      C3422   1.417       .  A
C3418      C3419   1.394       .  A
C3418      C3423   1.439       .  S
C3419      C3420   1.408       .  A
C3419      C3426   1.454       .  S
C3420      C3421   1.417       .  A
C3421      C3424   1.447       .  S
C3422      C3425   1.448       .  S
C3423      N3430   1.154       .  T
C3424      N3429   1.157       .  T
C3425      N3427   1.157       .  T
C3426      N3428   1.155       .  T
C3431      C3432   1.429       .  A
C3431      C3436   1.411       .  A
C3432      C3433   1.411       .  A
C3432      C3437   1.451       .  S
C3433      C3434   1.418       .  A
C3433      C3440   1.458       .  S
C3434      C3435   1.420       .  A
C3435      C3436   1.414       .  A
C3435      C3438   1.445       .  S
C3436      C3439   1.448       .  S
C3437      N3444   1.156       .  T
C3438      N3443   1.155       .  T
C3439      N3441   1.156       .  T
C3440      N3442   1.158       .  T
C3445      C3446   1.421       .  A
C3445      C3450   1.415       .  A
C3446      C3447   1.419       .  A
C3446      C3451   1.450       .  S
C3447      C3448   1.412       .  A
C3447      C3454   1.451       .  S
C3448      C3449   1.418       .  A
C3449      C3450   1.416       .  A
C3449      C3452   1.447       .  S
C3450      C3453   1.453       .  S
C3451      N3458   1.157       .  T
C3452      N3457   1.156       .  T
C3453      N3455   1.158       .  T
C3454      N3456   1.157       .  T
C3459      C3974   1.414       .  A
C3460      C3461   1.416       .  A
C3460      C3465   1.450       .  S
C3461      C3972   1.427   1_554  A
C3461      C3468   1.452       .  S
C3462      C3971   1.427       .  A
C3463      C3464   1.413       .  A
C3463      C3466   1.447       .  S
C3464      C3969   1.414       .  A
C3464      C3467   1.449       .  S
C3465      N3472   1.157       .  T
C3466      N3471   1.157       .  T
C3467      N3469   1.156       .  T
C3468      N3470   1.158       .  T
C3473      C3474   1.418       .  A
C3474      C3479   1.449       .  S
C3475      C3476   1.418       .  A
C3475      C3482   1.454       .  S
C3476      C3477   1.421       .  A
C3477      C3478   1.406       .  A
C3477      C3480   1.450       .  S
C3478      C3481   1.456       .  S
C3479      N3486   1.156       .  T
C3480      N3485   1.157       .  T
C3481      N3483   1.157       .  T
C3482      N3484   1.158       .  T
C3487      C3488   1.424       .  A
C3487      C3492   1.427       .  A
C3488      C3489   1.420       .  A
C3488      C3493   1.452       .  S
C3489      C3490   1.419       .  A
C3489      C3496   1.451       .  S
C3490      C3491   1.419       .  A
C3491      C3492   1.411       .  A
C3491      C3494   1.457       .  S
C3493      N3500   1.157       .  T
C3494      N3499   1.157       .  T
C3495      N3497   1.157       .  T
C3496      N3498   1.157       .  T
C3501      C3502   1.414       .  A
C3501      C3506   1.413       .  A
C3502      C3503   1.414       .  A
C3502      C3507   1.453       .  S
C3503      C3504   1.424       .  A
C3503      C3510   1.452       .  S
C3504      C3505   1.422       .  A
C3505      C3506   1.407       .  A
C3505      C3508   1.455       .  S
C3506      C3509   1.448       .  S
C3507      N3514   1.157       .  T
C3508      N3513   1.158       .  T
C3509      N3511   1.155       .  T
C3510      N3512   1.158       .  T
C3515      C3516   1.413       .  A
C3515      C3520   1.406       .  A
C3516      C3517   1.417       .  A
C3516      C3521   1.443       .  S
C3517      C3518   1.422       .  A
C3517      C3524   1.450       .  S
C3518      C3519   1.424       .  A
C3519      C3520   1.409       .  A
C3519      C3522   1.446       .  S
C3521      N3528   1.154       .  T
C3523      N3525   1.156       .  T
C3524      N3526   1.157       .  T
C3529      C3530   1.420       .  A
C3529      C3534   1.418       .  A
C3530      C3531   1.410       .  A
C3530      C3535   1.451       .  S
C3531      C3532   1.420       .  A
C3531      C3538   1.454       .  S
C3532      C3533   1.419       .  A
C3533      C3534   1.407       .  A
C3533      C3536   1.450       .  S
C3534      C3537   1.455       .  S
C3535      N3542   1.157       .  T
C3536      N3541   1.156       .  T
C3537      N3539   1.158       .  T
C3538      N3540   1.158       .  T
C3543      C3544   1.411       .  A
C3543      C3548   1.417       .  A
C3544      C3545   1.417       .  A
C3544      C3549   1.449       .  S
C3545      C4056   1.415       .  A
C3545      C3552   1.450       .  S
C3546      C4055   1.415       .  A
C3546      C3547   1.412       .  A
C3547      C4058   1.392   1_554  A
C3547      C3550   1.457       .  S
C3548      C4057   1.392       .  A
C3548      C3551   1.456       .  S
C3549      N3556   1.158       .  T
C3550      N3555   1.157       .  T
C3551      N4063   1.156       .  T
C3552      N3554   1.157       .  T
N3553      C4061   1.156       .  T
C3557      C3558   1.415       .  A
C3557      C3562   1.422       .  A
C3558      C3559   1.416       .  A
C3558      C3563   1.448       .  S
C3559      C3560   1.421       .  A
C3559      C3566   1.452       .  S
C3560      C3561   1.416       .  A
C3561      C3562   1.414       .  A
C3561      C3564   1.454       .  S
C3562      C3565   1.451       .  S
C3563      N3570   1.156       .  T
C3564      N3569   1.158       .  T
C3565      N3567   1.157       .  T
C3566      N3568   1.157       .  T
O3571      C3579   1.258       .  A
O3571     Co3591   1.892       .  S
O3572      C3580   1.249       .  A
O3572     Co3592   1.949       .  S
O3573      C3581   1.262       .  A
O3573     Co3593   2.035       .  S
O3574      C3582   1.282   1_455  A
O3574     Co3594   2.035   1_455  S
O3575      C3581   1.240       .  A
O3575     Co3592   1.911       .  S
O3576      C3582   1.268       .  A
O3576     Co3591   1.976       .  S
O3577      C3580   1.270       .  A
O3577     Co3594   2.042       .  S
O3578      C3579   1.293       .  A
O3578     Co3593   2.109       .  S
C3579      C4000   1.509       .  S
C3580      C3972   1.505       .  S
C3581      C4053   1.479       .  S
O3583      C3596   1.259       .  A
O3583     Co3591   1.984       .  S
O3584      C3597   1.275       .  A
O3584     Co3592   2.018       .  S
O3585      C3598   1.266       .  A
O3585     Co3593   1.895       .  S
O3586      C3599   1.264       .  A
O3586     Co3594   1.956       .  S
O3587      C3599   1.273       .  A
O3587     Co3592   2.014       .  S
O3588      C3598   1.301       .  A
O3588     Co3591   2.110       .  S
O3589      C3596   1.252       .  A
O3589     Co3594   1.968       .  S
O3590      C3597   1.259       .  A
O3590     Co3593   1.950       .  S
Co3591     O3595   2.002       .  S
Co3592     O3595   1.993       .  S
Co3593     O3595   2.049       .  S
Co3594     O3595   2.047       .  S
C3596      C3983   1.493       .  S
C3597      C4039   1.497       .  S
C3598      C4067   1.506       .  S
C3599      C4011   1.492       .  S
O3600      C3608   1.255       .  A
O3600     Co3620   1.979       .  S
O3601      C3609   1.260       .  A
O3601     Co3621   1.957       .  S
O3602      C3610   1.305       .  A
O3603      C3611   1.269       .  A
O3603     Co3623   2.037       .  S
O3604     Co3621   1.869       .  S
O3605      C3611   1.254       .  A
O3605     Co3620   1.921       .  S
O3606      C3609   1.280       .  A
O3606     Co3623   2.047       .  S
O3607      C3608   1.264       .  A
O3607     Co3622   2.041       .  S
C3608      C3902   1.516       .  S
C3610      C3941   1.512       .  S
C3611      C3930   1.493       .  S
O3612      C3625   1.278       .  A
O3612     Co3620   2.035       .  S
O3613      C3626   1.297       .  A
O3613     Co3621   2.092       .  S
O3614      C3627   1.263       .  A
O3614     Co3622   1.968       .  S
O3615      C3628   1.255       .  A
O3615     Co3623   1.983       .  S
O3616      C3628   1.259       .  A
O3616     Co3621   1.994       .  S
O3617      C3627   1.272       .  A
O3617     Co3620   2.002       .  S
O3618      C3625   1.261       .  A
O3618     Co3623   1.963       .  S
O3619      C3626   1.264       .  A
O3619     Co3622   1.888       .  S
Co3620     O3624   2.011       .  S
Co3621     O3624   1.977       .  S
Co3622     O3624   2.050       .  S
Co3623     O3624   2.078       .  S
C3625      C3955   1.506       .  S
C3626      C3885   1.476   1_655  S
C3627      C4014   1.504       .  S
C3628      C3913   1.511       .  S
O3629      C3637   1.295       .  A
O3629     Co3649   2.098       .  S
O3630      C3638   1.268       .  A
O3630     Co3650   2.013       .  S
O3631      C3639   1.257   1_565  A
O3631     Co3651   1.949       .  S
O3632      C3640   1.256       .  A
O3632     Co3652   1.965       .  S
O3633      C3639   1.287       .  A
O3633     Co3650   2.074   1_545  S
O3634      C3640   1.267       .  A
O3634     Co3649   2.031       .  S
O3635      C3638   1.260       .  A
O3635     Co3652   1.965       .  S
O3636      C3637   1.265       .  A
O3636     Co3651   1.905       .  S
C3638      C3804   1.487   1_565  S
C3640      C3969   1.493       .  S
O3641      C3654   1.265       .  A
O3641     Co3649   1.974       .  S
O3642      C3655   1.241       .  A
O3642     Co3650   1.952       .  S
O3643      C3656   1.290       .  A
O3643     Co3651   2.074       .  S
O3644      C3657   1.275       .  A
O3644     Co3652   2.027       .  S
O3645      C3657   1.256       .  A
O3645     Co3650   1.959       .  S
O3646      C3656   1.268       .  A
O3646     Co3649   1.902       .  S
O3647      C3654   1.278       .  A
O3647     Co3652   2.022       .  S
O3648      C3655   1.267       .  A
O3648     Co3651   2.038       .  S
Co3649     O3653   2.037       .  S
Co3650     O3653   2.044       .  S
Co3651     O3653   2.015       .  S
Co3652     O3653   2.031       .  S
C3654      C3843   1.507       .  S
C3655      C3818   1.486       .  S
C3656      C3986   1.496       .  S
C3657      C3857   1.493       .  S
O3658      C3666   1.267       .  A
O3658     Co3678   1.912       .  S
O3659      C3667   1.250       .  A
O3659     Co3679   1.950       .  S
O3660      C3668   1.267       .  A
O3660     Co3680   2.041       .  S
O3661      C3669   1.278       .  A
O3661     Co3681   2.022       .  S
O3662      C3668   1.244       .  A
O3662     Co3679   1.941       .  S
O3663      C3669   1.272       .  A
O3663     Co3678   1.983       .  S
O3664      C3667   1.277       .  A
O3664     Co3681   2.061       .  S
O3665      C3666   1.292       .  A
O3665     Co3680   2.080       .  S
C3666      C3773   1.489       .  S
C3668      C3815   1.489       .  S
C3669      C3944   1.507       .  S
O3670      C3683   1.262       .  A
O3670     Co3678   2.034       .  S
O3671      C3684   1.276       .  A
O3671     Co3679   2.044       .  S
O3672      C3685   1.268       .  A
O3672     Co3680   1.886       .  S
O3673      C3686   1.255       .  A
O3673     Co3681   1.957       .  S
O3674      C3686   1.276       .  A
O3674     Co3679   2.034       .  S
O3675      C3685   1.296       .  A
O3675     Co3678   2.085       .  S
O3676      C3683   1.257       .  A
O3676     Co3681   1.971       .  S
O3677      C3684   1.264       .  A
O3677     Co3680   1.981       .  S
Co3678     O3682   2.041       .  S
Co3679     O3682   2.037       .  S
Co3680     O3682   2.018       .  S
Co3681     O3682   2.025       .  S
C3683      C3787   1.513       .  S
C3684      C3958   1.501       .  S
C3685      C4042   1.499       .  S
C3686      C3801   1.499       .  S
O3687      C3695   1.261       .  A
O3687     Co3707   2.021       .  S
O3688      C3696   1.275       .  A
O3688     Co3708   2.056       .  S
O3689      C3697   1.241       .  A
O3689     Co3709   1.893       .  S
O3690      C3698   1.265       .  A
O3690     Co3710   1.881       .  S
O3691      C3697   1.272       .  A
O3691     Co3708   2.054       .  S
O3692      C3698   1.301       .  A
O3692     Co3707   2.123       .  S
O3693      C3696   1.267       .  A
O3693     Co3710   1.990       .  S
O3694      C3695   1.245       .  A
O3694     Co3709   1.958       .  S
C3696      C3790   1.538       .  S
C3697      C3888   1.483       .  S
C3698      C3832   1.495       .  S
O3699      C3712   1.265       .  A
O3699     Co3707   1.880       .  S
O3700      C3713   1.245       .  A
O3700     Co3708   1.938       .  S
O3701      C3714   1.275       .  A
O3701     Co3709   2.018       .  S
O3702      C3715   1.266       .  A
O3702     Co3710   2.046       .  S
O3703      C3715   1.244       .  A
O3703     Co3708   1.953       .  S
O3704      C3714   1.273       .  A
O3704     Co3707   2.000       .  S
O3705      C3712   1.302       .  A
O3705     Co3710   2.115       .  S
O3706      C3713   1.275       .  A
O3706     Co3709   2.061       .  S
Co3707     O3711   2.044       .  S
Co3708     O3711   2.058       .  S
Co3709     O3711   2.049       .  S
Co3710     O3711   2.039       .  S
C3712      C3776   1.495       .  S
C3713      C3846   1.492       .  S
C3714      C3899   1.529       .  S
C3715      C3759   1.494       .  S
O3716      C3724   1.249       .  A
O3716     Co3736   1.975       .  S
O3717      C3725   1.264       .  A
O3717     Co3737   1.965       .  S
O3718      C3726   1.274       .  A
O3718     Co3738   2.037       .  S
O3719      C3727   1.240       .  A
O3719     Co3739   1.966       .  S
O3720      C3726   1.246       .  A
O3720     Co3737   1.904       .  S
O3721      C3727   1.257       .  A
O3721     Co3736   2.000       .  S
O3722      C3725   1.273       .  A
O3722     Co3739   2.023       .  S
O3723      C3724   1.251       .  A
O3723     Co3738   1.993       .  S
C3724      C3874   1.507       .  S
C3725      C3916   1.501       .  S
C3726      C4056   1.463       .  S
O3728      C3741   1.289       .  A
O3728     Co3736   2.044       .  S
O3729      C3742   1.272       .  A
O3729     Co3737   2.030       .  S
O3730      C3743   1.278       .  A
O3730     Co3738   1.906       .  S
O3731      C3744   1.267       .  A
O3731     Co3739   2.005       .  S
O3732      C3744   1.258       .  A
O3732     Co3737   1.970       .  S
O3733      C3743   1.299       .  A
O3733     Co3736   2.048       .  S
O3734      C3741   1.277       .  A
O3734     Co3739   1.939       .  S
O3735      C3742   1.255       .  A
O3735     Co3738   1.984       .  S
Co3736     O3740   2.227       .  S
Co3737     O3740   2.062       .  S
Co3738     O3740   1.975       .  S
Co3739     O3740   1.991       .  S
C3741      C3927   1.488       .  S
C3742      C3762   1.503       .  S
C3743      C4070   1.503       .  S
C3744      C3860   1.500       .  S
C3745      C3746   1.404       .  A
C3745      C3750   1.420       .  A
C3746      C3747   1.406       .  A
C3747      C3748   1.409       .  A
C3747      C3754   1.438       .  S
C3748      C3749   1.418       .  A
C3749      C3750   1.415       .  A
C3749      C3752   1.450       .  S
C3750      C3753   1.452       .  S
C3751      N3758   1.153       .  T
C3752      N3757   1.157       .  T
C3753      N3755   1.158       .  T
C3759      C3760   1.414       .  A
C3759      C3764   1.404       .  A
C3760      C3761   1.407       .  A
C3760      C3765   1.440       .  S
C3761      C3762   1.411       .  A
C3761      C3768   1.454       .  S
C3762      C3763   1.429       .  A
C3763      C3764   1.422       .  A
C3763      C3766   1.445       .  S
C3764      C3767   1.451       .  S
C3765      N3772   1.152       .  T
C3766      N3771   1.156       .  T
C3767      N3769   1.157       .  T
C3768      N3770   1.157       .  T
C3773      C3774   1.417       .  A
C3773      C3778   1.410       .  A
C3774      C3775   1.420       .  A
C3774      C3779   1.450       .  S
C3775      C3776   1.414       .  A
C3775      C3782   1.449       .  S
C3776      C3777   1.417       .  A
C3777      C3778   1.404       .  A
C3777      C3780   1.447       .  S
C3778      C3781   1.455       .  S
C3779      N3786   1.157       .  T
C3780      N3785   1.154       .  T
C3781      N3783   1.157       .  T
C3782      N3784   1.157       .  T
C3787      C3792   1.416       .  A
C3788      C3789   1.412       .  A
C3788      C3793   1.455       .  S
C3789      C3790   1.420       .  A
C3789      C3796   1.434       .  S
C3790      C3791   1.428       .  A
C3791      C3794   1.447       .  S
C3792      C3795   1.449       .  S
C3794      N3799   1.157       .  T
C3795      N3797   1.157       .  T
C3796      N3798   1.150       .  T
C3802      C3803   1.412       .  A
C3802      C3807   1.451       .  S
C3803      C3810   1.449       .  S
C3805      C3806   1.409   1_565  A
C3805      C3808   1.448       .  S
C3806      C3809   1.449   1_545  S
C3807      N3814   1.158       .  T
C3808      N3813   1.157       .  T
C3809      N3811   1.158       .  T
C3810      N3812   1.157       .  T
C3815      C3816   1.421       .  A
C3815      C3820   1.408       .  A
C3817      C3818   1.403       .  A
C3817      C3824   1.451       .  S
C3819      C3820   1.415       .  A
C3819      C3822   1.448       .  S
C3820      C3823   1.449       .  S
C3821      N3828   1.156       .  T
C3822      N3827   1.157       .  T
C3823      N3825   1.157       .  T
C3824      N3826   1.157       .  T
C3829      C3830   1.407       .  A
C3829      C3834   1.423       .  A
C3830      C3831   1.398       .  A
C3830      C3835   1.441       .  S
C3831      C3832   1.414       .  A
C3831      C3838   1.453       .  S
C3832      C3833   1.419       .  A
C3833      C3834   1.422       .  A
C3833      C3836   1.451       .  S
C3834      C3837   1.449       .  S
C3835      N3842   1.156       .  T
C3836      N3841   1.157       .  T
C3838      N3840   1.157       .  T
C3843      C3844   1.413       .  A
C3843      C3848   1.424       .  A
C3844      C3845   1.406       .  A
C3844      C3849   1.456       .  S
C3845      C3846   1.418       .  A
C3845      C3852   1.447       .  S
C3846      C3847   1.412       .  A
C3847      C3848   1.422       .  A
C3847      C3850   1.451       .  S
C3848      C3851   1.448       .  S
C3849      N3856   1.157       .  T
C3850      N3855   1.157       .  T
C3851      N3853   1.157       .  T
C3852      N3854   1.158       .  T
C3857      C3858   1.407       .  A
C3857      C3862   1.420       .  A
C3858      C3859   1.407       .  A
C3858      C3863   1.451       .  S
C3859      C3860   1.425       .  A
C3859      C3866   1.453       .  S
C3860      C3861   1.412       .  A
C3861      C3862   1.420       .  A
C3861      C3864   1.449       .  S
C3862      C3865   1.450       .  S
C3863      N3870   1.156       .  T
C3864      N3869   1.157       .  T
C3865      N3867   1.157       .  T
C3866      N3868   1.157       .  T
C3871      C3872   1.421       .  A
C3871      C3876   1.418       .  A
C3872      C3873   1.411       .  A
C3872      C3877   1.450   1_655  S
C3873      C3874   1.420       .  A
C3873      C3880   1.455       .  S
C3874      C3875   1.408       .  A
C3875      C3876   1.412       .  A
C3875      C3878   1.446       .  S
C3876      C3879   1.448       .  S
C3878      N3883   1.157       .  T
C3879      N3881   1.157   1_655  T
C3880      N3882   1.158       .  T
C3886      C3891   1.450       .  S
C3887      C3888   1.419       .  A
C3887      C3894   1.445       .  S
C3888      C3889   1.419       .  A
C3889      C3892   1.453       .  S
C3892      N3897   1.156       .  T
C3893      N3895   1.156       .  T
C3894      N3896   1.157       .  T
C3899      C3900   1.428       .  A
C3899      C3904   1.424       .  A
C3901      C3902   1.415       .  A
C3901      C3908   1.456       .  S
C3903      C3904   1.430       .  A
C3903      C3906   1.450       .  S
C3904      C3907   1.449       .  S
C3905      N3912   1.157       .  T
C3906      N3911   1.157       .  T
C3907      N3909   1.157       .  T
C3908      N3910   1.158       .  T
C3913      C3914   1.427   1_556  A
C3913      C3918   1.420       .  A
C3914      C3919   1.449   1_554  S
C3915      C3922   1.449       .  S
C3916      C3917   1.412       .  A
C3917      C3920   1.450       .  S
C3918      C3921   1.452       .  S
C3919      N3926   1.157       .  T
C3920      N3925   1.155       .  T
C3921      N3923   1.157       .  T
C3922      N3924   1.157       .  T
C3927      C3932   1.417       .  A
C3928      C3929   1.394       .  A
C3928      C3933   1.439       .  S
C3929      C3930   1.408       .  A
C3929      C3936   1.454       .  S
C3930      C3931   1.417       .  A
C3931      C3934   1.447       .  S
C3932      C3935   1.448       .  S
C3933      N3940   1.154       .  T
C3934      N3939   1.157       .  T
C3935      N3937   1.157       .  T
C3936      N3938   1.155       .  T
C3941      C3942   1.429       .  A
C3941      C3946   1.411       .  A
C3942      C3943   1.411       .  A
C3942      C3947   1.451       .  S
C3943      C3944   1.418       .  A
C3943      C3950   1.458       .  S
C3944      C3945   1.420       .  A
C3945      C3946   1.414       .  A
C3945      C3948   1.445       .  S
C3946      C3949   1.448       .  S
C3947      N3954   1.156       .  T
C3948      N3953   1.155       .  T
C3949      N3951   1.156       .  T
C3950      N3952   1.158       .  T
C3955      C3956   1.421       .  A
C3955      C3960   1.415       .  A
C3956      C3957   1.419       .  A
C3956      C3961   1.450       .  S
C3957      C3958   1.412       .  A
C3957      C3964   1.451       .  S
C3958      C3959   1.418       .  A
C3959      C3960   1.416       .  A
C3959      C3962   1.447       .  S
C3960      C3963   1.453       .  S
C3961      N3968   1.157       .  T
C3962      N3967   1.156       .  T
C3963      N3965   1.158       .  T
C3964      N3966   1.157       .  T
C3970      C3971   1.416       .  A
C3970      C3975   1.450       .  S
C3971      C3978   1.452       .  S
C3973      C3974   1.413   1_556  A
C3973      C3976   1.447       .  S
C3974      C3977   1.449       .  S
C3975      N3982   1.157       .  T
C3976      N3981   1.157       .  T
C3977      N3979   1.156       .  T
C3978      N3980   1.158       .  T
C3983      C3984   1.418       .  A
C3984      C3989   1.449       .  S
C3985      C3986   1.418       .  A
C3985      C3992   1.454       .  S
C3986      C3987   1.421       .  A
C3987      C3988   1.406       .  A
C3987      C3990   1.450       .  S
C3988      C3991   1.456       .  S
C3989      N3996   1.156       .  T
C3990      N3995   1.157       .  T
C3991      N3993   1.157       .  T
C3992      N3994   1.158       .  T
C3997      C3998   1.424       .  A
C3997      C4002   1.427       .  A
C3998      C3999   1.420       .  A
C3998      C4003   1.452       .  S
C3999      C4000   1.419       .  A
C3999      C4006   1.451       .  S
C4000      C4001   1.419       .  A
C4001      C4002   1.411       .  A
C4001      C4004   1.457       .  S
C4003      N4010   1.157       .  T
C4004      N4009   1.157       .  T
C4005      N4007   1.157       .  T
C4006      N4008   1.157       .  T
C4011      C4012   1.414       .  A
C4011      C4016   1.413       .  A
C4012      C4013   1.414       .  A
C4012      C4017   1.453       .  S
C4013      C4014   1.424       .  A
C4013      C4020   1.452       .  S
C4014      C4015   1.422       .  A
C4015      C4016   1.407       .  A
C4015      C4018   1.455       .  S
C4016      C4019   1.448       .  S
C4017      N4024   1.157       .  T
C4018      N4023   1.158       .  T
C4019      N4021   1.155       .  T
C4020      N4022   1.158       .  T
C4025      C4026   1.413       .  A
C4025      C4030   1.406       .  A
C4026      C4027   1.417       .  A
C4026      C4031   1.443       .  S
C4027      C4028   1.422       .  A
C4027      C4034   1.450       .  S
C4028      C4029   1.424       .  A
C4029      C4030   1.409       .  A
C4029      C4032   1.446       .  S
C4031      N4038   1.154       .  T
C4033      N4035   1.156       .  T
C4034      N4036   1.157       .  T
C4039      C4040   1.420       .  A
C4039      C4044   1.418       .  A
C4040      C4041   1.410       .  A
C4040      C4045   1.451       .  S
C4041      C4042   1.420       .  A
C4041      C4048   1.454       .  S
C4042      C4043   1.419       .  A
C4043      C4044   1.407       .  A
C4043      C4046   1.450       .  S
C4044      C4047   1.455       .  S
C4045      N4052   1.157       .  T
C4046      N4051   1.156       .  T
C4047      N4049   1.158       .  T
C4048      N4050   1.158       .  T
C4053      C4054   1.411       .  A
C4053      C4058   1.417       .  A
C4054      C4055   1.417   1_556  A
C4054      C4059   1.449       .  S
C4055      C4062   1.450       .  S
C4056      C4057   1.412       .  A
C4057      C4060   1.457       .  S
C4058      C4061   1.456       .  S
C4059      N4066   1.158       .  T
C4060      N4065   1.157       .  T
C4062      N4064   1.157       .  T
C4067      C4068   1.415       .  A
C4067      C4072   1.422       .  A
C4068      C4069   1.416       .  A
C4068      C4073   1.448       .  S
C4069      C4070   1.421       .  A
C4069      C4076   1.452       .  S
C4070      C4071   1.416       .  A
C4071      C4072   1.414       .  A
C4071      C4074   1.454       .  S
C4072      C4075   1.451       .  S
C4073      N4080   1.156       .  T
C4074      N4079   1.158       .  T
C4075      N4077   1.157       .  T
C4076      N4078   1.157       .  T
