geometry optimzed in LAMMPS
_audit_creation_date              2020-11-30 
_audit_creation_method            'lammps2cif' 
_symmetry_space_group_name_H-M    'P1' 
_symmetry_Int_Tables_number       1 
_symmetry_cell_setting            triclinic 
loop_ 
_symmetry_equiv_pos_as_xyz 
  x,y,z 
_cell_length_a                    71.85865167 
_cell_length_b                    71.39019118997065 
_cell_length_c                    71.79407284188297 
_cell_angle_alpha                 90.05827759971889 
_cell_angle_beta                  89.96820398542472 
_cell_angle_gamma                 89.90258246090312 
loop_ 
_atom_site_label 
_atom_site_type_symbol 
_atom_site_fract_x 
_atom_site_fract_y 
_atom_site_fract_z 
_atom_site_charge 
C1          C  0.69357955  0.71775162  0.71592502     0.82000
N2          N  0.69739669  0.70303193  0.72725817    -0.76300
C3          C  0.71238923  0.69195725  0.72379446     0.84500
N4          N  0.72342560  0.69548548  0.70886031    -0.76200
C5          C  0.71961198  0.71020296  0.69751812     0.84500
N6          N  0.70462839  0.72125787  0.70099473    -0.78000
C7          C  0.46186849  0.48419926  0.46932998     0.82000
N8          N  0.47696313  0.47974436  0.45885506    -0.76300
C9          C  0.48727209  0.46437687  0.46308356     0.84500
N10         N  0.48260098  0.45360067  0.47792153    -0.76200
C11         C  0.46749490  0.45806561  0.48839478     0.84500
N12         N  0.45720625  0.47342104  0.48416279    -0.78000
C13         C  0.21386060  0.19214856  0.22037376     0.82000
N14         N  0.22354302  0.19553911  0.20449151    -0.76300
C15         C  0.21838790  0.20982498  0.19312098     0.84500
N16         N  0.20340915  0.22055090  0.19753285    -0.76200
C17         C  0.19371914  0.21715534  0.21340633     0.84500
N18         N  0.19887755  0.20288457  0.22475405    -0.78000
C19         C  0.95680269  0.45924851  0.44083431     0.82000
N20         N  0.94125584  0.45552158  0.45091557    -0.76300
C21         C  0.93681730  0.46635637  0.46582102     0.84500
N22         N  0.94783491  0.48106350  0.47051704    -0.76200
C23         C  0.96338648  0.48479240  0.46043911     0.84500
N24         N  0.96779244  0.47394182  0.44553812    -0.78000
C25         C  0.47085962  0.46456303  0.94366259     0.82000
N26         N  0.48621216  0.46795793  0.95413925    -0.76300
C27         C  0.49033276  0.45666327  0.96876797     0.84500
N28         N  0.47921015  0.44185165  0.97278977    -0.76200
C29         C  0.46386645  0.43846568  0.96231276     0.84500
N30         N  0.45976110  0.44976406  0.94769299    -0.78000
C31         C  0.96882609  0.44053584  0.96983316     0.82000
N32         N  0.95406495  0.44485610  0.95887174    -0.76300
C33         C  0.94325689  0.45990881  0.96297935     0.84500
N34         N  0.94708827  0.47051934  0.97818603    -0.76200
C35         C  0.96186096  0.46621582  0.98916336     0.84500
N36         N  0.97266234  0.45115347  0.98504998    -0.78000
C37         C  0.19076791  0.70666870  0.22219305     0.82000
N38         N  0.19359067  0.72214350  0.21158073    -0.76300
C39         C  0.20796327  0.73385957  0.21544769     0.84500
N40         N  0.21938938  0.73017298  0.23005673    -0.76200
C41         C  0.21656781  0.71469785  0.24067296     0.84500
N42         N  0.20220814  0.70302110  0.23678427    -0.78000
C43         C  0.23549544  0.70489400  0.71605534     0.82000
N44         N  0.23180195  0.72029138  0.72652571    -0.76300
C45         C  0.21680039  0.73115015  0.72253987     0.84500
N46         N  0.20562066  0.72671313  0.70797238    -0.76200
C47         C  0.20933171  0.71130775  0.69751155     0.84500
N48         N  0.22431501  0.70046740  0.70149230    -0.78000
C49         C  0.69170695  0.20902798  0.72300175     0.82000
N50         N  0.70318013  0.20421473  0.73723201    -0.76300
C51         C  0.71863413  0.21452485  0.74074084     0.84500
N52         N  0.72250647  0.22976964  0.73014943    -0.76200
C53         C  0.71103164  0.23457691  0.71593212     0.84500
N54         N  0.69558864  0.22425419  0.71241697    -0.78000
C55         C  0.71085898  0.21055631  0.19631682     0.82000
N56         N  0.70647249  0.22479168  0.20808245    -0.76300
C57         C  0.71703026  0.22800554  0.22341807     0.84500
N58         N  0.73214655  0.21710376  0.22686968    -0.76200
C59         C  0.73655683  0.20285376  0.21512096     0.84500
N60         N  0.72596476  0.19966048  0.19978380    -0.78000
C61         C  0.71690364  0.68692752  0.21448924     0.82000
N62         N  0.73140054  0.69830864  0.21020812    -0.76300
C63         C  0.73494714  0.71362411  0.22082985     0.84500
N64         N  0.72411503  0.71743493  0.23587275    -0.76200
C65         C  0.70961811  0.70606177  0.24016383     0.84500
N66         N  0.70608602  0.69074836  0.22952266    -0.78000
C67         C  0.44175467  0.96112372  0.97345656     0.82000
N68         N  0.44530595  0.95019909  0.95839690    -0.76300
C69         C  0.46046564  0.95359587  0.94764857     0.84500
N70         N  0.47194931  0.96806669  0.95183224    -0.76200
C71         C  0.46840505  0.97900680  0.96690107     0.84500
N72         N  0.45323877  0.97560587  0.97763874    -0.78000
C73         C  0.44549702  0.95887232  0.46174134     0.82000
N74         N  0.45608293  0.94336845  0.45879094    -0.76300
C75         C  0.47107181  0.93991300  0.46977885     0.84500
N76         N  0.47533411  0.95184898  0.48387107    -0.76200
C77         C  0.46477988  0.96735026  0.48684032     0.84500
N78         N  0.44979202  0.97079143  0.47584038    -0.78000
C79         C  0.21957218  0.18598800  0.71406949     0.82000
N80         N  0.23456614  0.19682355  0.71006182    -0.76300
C81         C  0.23864622  0.21185023  0.72091514     0.84500
N82         N  0.22784410  0.21589949  0.73592079    -0.76200
C83         C  0.21285749  0.20508069  0.73994962     0.84500
N84         N  0.20879889  0.19006054  0.72907824    -0.78000
N85         N  0.72133565  0.58192630  0.15008128    -0.25500
N86         N  0.73871087  0.58685448  0.15354955    -0.33400
C87         C  0.73885647  0.60288116  0.16330079     0.02800
C88         C  0.72071224  0.60833823  0.16611160     0.08900
C89         C  0.70984320  0.59483394  0.15760827    -0.04200
H90         H  0.75128734  0.60999799  0.16799077     0.09500
H91         H  0.69480898  0.59439042  0.15694585     0.10700
Cu92       Cu  0.76156359  0.57178709  0.14513199     0.44200
Cu93       Cu  0.71495182  0.55768495  0.13528800     0.42000
Cu94       Cu  0.75547761  0.52923674  0.11969767     0.43900
N95         N  0.78346705  0.55529450  0.13686887    -0.32900
N96         N  0.78163679  0.53949060  0.12744436    -0.27100
C97         C  0.79873449  0.53216952  0.12457194    -0.03200
C98         C  0.81165693  0.54405278  0.13266894     0.09000
C99         C  0.80153878  0.55851257  0.14027331     0.02800
H100        H  0.80151350  0.51918532  0.11729246     0.10400
H101        H  0.80686418  0.57047075  0.14783985     0.09500
N102        N  0.72753769  0.52235113  0.11504090    -0.34300
N103        N  0.71313276  0.53253665  0.12064889    -0.26500
C104        C  0.69729223  0.52396152  0.11541841    -0.01800
C105        C  0.70191910  0.50767706  0.10613035     0.06900
C106        C  0.72113898  0.50704487  0.10610311     0.04900
H107        H  0.68343547  0.52921964  0.11820037     0.10100
H108        H  0.72985255  0.49625877  0.10006159     0.08900
N109        N  0.63567744  0.39120592  0.05622474    -0.25500
N110        N  0.62093698  0.38979849  0.04531590    -0.33400
C111        C  0.61768102  0.37172483  0.04139193     0.02800
C112        C  0.63101628  0.36115718  0.05020054     0.08900
C113        C  0.64225819  0.37381149  0.05956245    -0.04200
H114        H  0.60635099  0.36669522  0.03282960     0.09500
H115        H  0.65422122  0.37063859  0.06814878     0.10700
Cu116      Cu  0.60551673  0.41219275  0.03637787     0.44200
Cu117      Cu  0.64531513  0.41721973  0.06559419     0.42000
Cu118      Cu  0.61649189  0.45832564  0.05162036     0.43900
N119        N  0.58988415  0.43513142  0.02933406    -0.32900
N120        N  0.59353302  0.45238097  0.03490853    -0.27100
C121        C  0.58039719  0.46395207  0.02796153    -0.03200
C122        C  0.56812070  0.45324353  0.01760785     0.09000
C123        C  0.57450702  0.43512875  0.01877882     0.02800
H124        H  0.57984309  0.47892026  0.03027785     0.10400
H125        H  0.56840313  0.42279355  0.01251217     0.09500
N126        N  0.64100141  0.45975067  0.06711898    -0.34300
N127        N  0.65133879  0.44517563  0.07207427    -0.26500
C128        C  0.66625245  0.45142633  0.08161176    -0.01800
C129        C  0.66519384  0.47072435  0.08268579     0.06900
C130        C  0.64908752  0.47554964  0.07338913     0.04900
H131        H  0.67711421  0.44256829  0.08722181     0.10100
H132        H  0.64369647  0.48953050  0.07117533     0.08900
N133        N  0.53422390  0.08262333  0.96270557    -0.25500
N134        N  0.52992288  0.07782814  0.94545342    -0.33400
C135        C  0.52015877  0.06183788  0.94562801     0.02800
C136        C  0.51820191  0.05625310  0.96384858     0.08900
C137        C  0.52723167  0.06965892  0.97443527    -0.04200
H138        H  0.51493006  0.05479278  0.93335235     0.09500
H139        H  0.52864157  0.06997525  0.98943540     0.10700
Cu140      Cu  0.53752342  0.09287417  0.92229461     0.44200
Cu141      Cu  0.54949352  0.10671854  0.96855232     0.42000
Cu142      Cu  0.56525295  0.13414361  0.92753253     0.43900
N143        N  0.54646397  0.10855952  0.90005984    -0.32900
N144        N  0.55678254  0.12379360  0.90162501    -0.27100
C145        C  0.56009215  0.13057734  0.88440581    -0.03200
C146        C  0.55135864  0.11896319  0.87165748     0.09000
C147        C  0.54290734  0.10519600  0.88200988     0.02800
H148        H  0.56813856  0.14301462  0.88142267     0.10400
H149        H  0.53473381  0.09358150  0.87685511     0.09500
N150        N  0.57049525  0.14130019  0.95531667    -0.34300
N151        N  0.56479753  0.13149133  0.96991570    -0.26500
C152        C  0.57043243  0.14015179  0.98559984    -0.01800
C153        C  0.58009166  0.15608648  0.98066874     0.06900
C154        C  0.57989889  0.15643607  0.96142483     0.04900
H155        H  0.56766014  0.13519785  0.99956408     0.10100
H156        H  0.58607597  0.16692991  0.95250096     0.08900
N157        N  0.64741438  0.21394340  0.09093251    -0.25500
N158        N  0.65243013  0.23138830  0.09445824    -0.33400
C159        C  0.66187676  0.23205190  0.11054360     0.02800
C160        C  0.66291377  0.21416949  0.11754625     0.08900
C161        C  0.65364390  0.20291110  0.10486554    -0.04200
H162        H  0.66758924  0.24466068  0.11664023     0.09500
H163        H  0.65164953  0.18791433  0.10564555     0.10700
Cu164      Cu  0.64630223  0.25369031  0.07758761     0.44200
Cu165      Cu  0.63248755  0.20701349  0.06694753     0.42000
Cu166      Cu  0.61889373  0.24746573  0.03684403     0.43900
N167        N  0.63780316  0.27565969  0.06135633    -0.32900
N168        N  0.62743426  0.27383210  0.04627293    -0.27100
C169        C  0.62395263  0.29106557  0.03936183    -0.03200
C170        C  0.63268160  0.30405327  0.05075506     0.09000
C171        C  0.64125355  0.29384269  0.06450682     0.02800
H172        H  0.61563416  0.29390750  0.02712747     0.10400
H173        H  0.64921319  0.29920128  0.07613266     0.09500
N174        N  0.61334715  0.21928263  0.03097885    -0.34300
N175        N  0.61819672  0.20493920  0.04167499    -0.26500
C176        C  0.61250283  0.18893009  0.03353325    -0.01800
C177        C  0.60370556  0.19338844  0.01702887     0.06900
C178        C  0.60445900  0.21267907  0.01580543     0.04900
H179        H  0.61464840  0.17506741  0.03922533     0.10100
H180        H  0.59899007  0.22130865  0.00469707     0.08900
N181        N  0.95903273  0.52869505  0.09485926    -0.25500
N182        N  0.94179482  0.52410363  0.09041318    -0.33400
C183        C  0.94169704  0.51522401  0.07395898     0.02800
C184        C  0.95973799  0.51411822  0.06769161     0.08900
C185        C  0.97050995  0.52273996  0.08118628    -0.04200
H186        H  0.92937233  0.50985938  0.06715315     0.09500
H187        H  0.98546440  0.52447253  0.08113699     0.10700
Cu188      Cu  0.91906767  0.52980187  0.10670633     0.44200
Cu189      Cu  0.96503661  0.54273365  0.11961369     0.42000
Cu190      Cu  0.92414371  0.55506523  0.14930565     0.43900
N191        N  0.89685979  0.53713784  0.12305808    -0.32900
N192        N  0.89825625  0.54661172  0.13881955    -0.27100
C193        C  0.88094911  0.54951114  0.14557989    -0.03200
C194        C  0.86836907  0.54134501  0.13339335     0.09000
C195        C  0.87889734  0.53370987  0.11932266     0.02800
H196        H  0.87777432  0.55713307  0.15822382     0.10400
H197        H  0.87390349  0.52644252  0.10707831     0.09500
N198        N  0.95194295  0.56140770  0.15558936    -0.34300
N199        N  0.96642320  0.55697143  0.14498570    -0.26500
C200        C  0.98209046  0.56317294  0.15322091    -0.01800
C201        C  0.97729573  0.57188233  0.16971304     0.06900
C202        C  0.95813617  0.57054723  0.17082112     0.04900
H203        H  0.99595409  0.56146156  0.14757713     0.10100
H204        H  0.94932355  0.57582502  0.18187209     0.08900
N205        N  0.08786723  0.63990882  0.22605509    -0.25500
N206        N  0.09285249  0.64314091  0.24348245    -0.33400
C207        C  0.10927910  0.65203738  0.24373457     0.02800
C208        C  0.11496668  0.65455477  0.22561394     0.08900
C209        C  0.10113286  0.64678283  0.21464650    -0.04200
H210        H  0.11638693  0.65659719  0.25622096     0.09500
H211        H  0.10064837  0.64630046  0.19959164     0.10700
Cu212      Cu  0.07700339  0.63616875  0.26627885     0.44200
Cu213      Cu  0.06294633  0.62643327  0.21951250     0.42000
Cu214      Cu  0.03324225  0.61329750  0.25984533     0.43900
N215        N  0.05928500  0.63027944  0.28796510    -0.32900
N216        N  0.04303110  0.62186589  0.28597460    -0.27100
C217        C  0.03504155  0.62028910  0.30292443    -0.03200
C218        C  0.04694556  0.62816853  0.31593698     0.09000
C219        C  0.06212331  0.63430362  0.30601021     0.02800
H220        H  0.02165397  0.61390263  0.30555760     0.10400
H221        H  0.07437586  0.64117918  0.31146157     0.09500
N222        N  0.02725818  0.60704561  0.23195771    -0.34300
N223        N  0.03783247  0.61184890  0.21759370    -0.26500
C224        C  0.02980559  0.60567703  0.20178145    -0.01800
C225        C  0.01348996  0.59659531  0.20638321     0.06900
C226        C  0.01227144  0.59768758  0.22556684     0.04900
H227        H  0.03547628  0.60763937  0.18795824     0.10100
H228        H  0.00129354  0.59212744  0.23426154     0.08900
N229        N  0.02897363  0.58897717  0.46213327    -0.25500
N230        N  0.02238488  0.58663878  0.44510748    -0.33400
C231        C  0.01220264  0.57094078  0.44440533     0.02800
C232        C  0.01230658  0.56295325  0.46181100     0.08900
C233        C  0.02304615  0.57463632  0.47284167    -0.04200
H234        H  0.00536562  0.56567242  0.43204279     0.09500
H235        H  0.02635504  0.57283879  0.48743107     0.10700
Cu236      Cu  0.02782855  0.60417435  0.42316752     0.44200
Cu237      Cu  0.04576725  0.61183216  0.46890945     0.42000
Cu238      Cu  0.05884976  0.64236540  0.42871790     0.43900
N239        N  0.03710566  0.61973137  0.40105091    -0.32900
N240        N  0.04887109  0.63384064  0.40265890    -0.27100
C241        C  0.05285401  0.64027600  0.38543652    -0.03200
C242        C  0.04297764  0.62963258  0.37265458     0.09000
C243        C  0.03323631  0.61675752  0.38300527     0.02800
H244        H  0.06242356  0.65156460  0.38244569     0.10400
H245        H  0.02434587  0.60570471  0.37781979     0.09500
N246        N  0.06613736  0.64722775  0.45655649    -0.34300
N247        N  0.06152194  0.63634322  0.47079239    -0.26500
C248        C  0.06832129  0.64387422  0.48659648    -0.01800
C249        C  0.07760449  0.66017350  0.48211967     0.06900
C250        C  0.07596756  0.66192445  0.46303208     0.04900
H251        H  0.06646050  0.63799103  0.50035335     0.10100
H252        H  0.08137695  0.67312895  0.45447012     0.08900
N253        N  0.14346500  0.71399583  0.59492430    -0.25500
N254        N  0.14624776  0.73132152  0.60078956    -0.33400
C255        C  0.15563239  0.73097270  0.61690922     0.02800
C256        C  0.15890884  0.71256474  0.62144157     0.08900
C257        C  0.15109560  0.70204062  0.60729499    -0.04200
H258        H  0.15988304  0.74325675  0.62464642     0.09500
H259        H  0.15104895  0.68693979  0.60600418     0.10700
Cu260      Cu  0.13782803  0.75483904  0.58672708     0.44200
Cu261      Cu  0.12962265  0.70819941  0.57014818     0.42000
Cu262      Cu  0.11554748  0.74932553  0.54241654     0.43900
N263        N  0.13025227  0.77707979  0.57033646    -0.32900
N264        N  0.12209997  0.77539943  0.55391806    -0.27100
C265        C  0.11934677  0.79268117  0.54685615    -0.03200
C266        C  0.12615783  0.80557768  0.55954355     0.09000
C267        C  0.13293131  0.79526790  0.57421211     0.02800
H268        H  0.11296683  0.79560367  0.53352338     0.10400
H269        H  0.13943651  0.80053729  0.58675069     0.09500
N270        N  0.11076723  0.72149993  0.53466207    -0.34300
N271        N  0.11581816  0.70677308  0.54469544    -0.26500
C272        C  0.11052126  0.69104665  0.53580020    -0.01800
C273        C  0.10177872  0.69609607  0.51944506     0.06900
C274        C  0.10213053  0.71544886  0.51911900     0.04900
H275        H  0.11282041  0.67698466  0.54092265     0.10100
H276        H  0.09645615  0.72448369  0.50844056     0.08900
N277        N  0.58757451  0.14407808  0.72495962    -0.25500
N278        N  0.59197171  0.14787315  0.74242609    -0.33400
C279        C  0.60771368  0.15790447  0.74289062     0.02800
C280        C  0.61354546  0.16058080  0.72485739     0.08900
C281        C  0.60056434  0.15168504  0.71371391    -0.04200
H282        H  0.61441744  0.16281976  0.75546812     0.09500
H283        H  0.60054341  0.15079087  0.69866930     0.10700
Cu284      Cu  0.57675625  0.13926091  0.76498325     0.44200
Cu285      Cu  0.56390918  0.12868855  0.71822832     0.42000
Cu286      Cu  0.53549851  0.11223468  0.75836245     0.43900
N287        N  0.56122281  0.12925289  0.78672898    -0.32900
N288        N  0.54594254  0.11916903  0.78473010    -0.27100
C289        C  0.53946743  0.11475893  0.80182716    -0.03200
C290        C  0.55134921  0.12255185  0.81491530     0.09000
C291        C  0.56493174  0.13157321  0.80489507     0.02800
H292        H  0.52716055  0.10647627  0.80450429     0.10400
H293        H  0.57674377  0.13918325  0.81035575     0.09500
N294        N  0.52897530  0.10773400  0.73024190    -0.34300
N295        N  0.53918611  0.11359676  0.71600584    -0.26500
C296        C  0.53098172  0.10827282  0.69999394    -0.01800
C297        C  0.51491066  0.09865465  0.70431016     0.06900
C298        C  0.51401796  0.09853878  0.72354624     0.04900
H299        H  0.53635658  0.11120239  0.68622295     0.10100
H300        H  0.50331849  0.09221511  0.73206844     0.08900
N301        N  0.46199944  0.03306687  0.59048699    -0.25500
N302        N  0.44477008  0.03123508  0.58432801    -0.33400
C303        C  0.44490525  0.02252220  0.56778097     0.02800
C304        C  0.46308163  0.01864697  0.56320538     0.08900
C305        C  0.47368966  0.02543061  0.57784052    -0.04200
H306        H  0.43260825  0.01905765  0.55980341     0.09500
H307        H  0.48866592  0.02477903  0.57925161     0.10700
Cu308      Cu  0.42161720  0.03985861  0.59866890     0.44200
Cu309      Cu  0.46771098  0.04592520  0.61602777     0.42000
Cu310      Cu  0.42645291  0.06160791  0.64323342     0.43900
N311        N  0.39929219  0.04679319  0.61506037    -0.32900
N312        N  0.40069117  0.05477600  0.63161703    -0.27100
C313        C  0.38342766  0.05698697  0.63867981    -0.03200
C314        C  0.37085151  0.04999071  0.62583235     0.09000
C315        C  0.38132306  0.04367705  0.61108673     0.02800
H316        H  0.38030775  0.06306249  0.65213796     0.10400
H317        H  0.37631787  0.03714119  0.59844615     0.09500
N318        N  0.45412315  0.06605005  0.65104326    -0.34300
N319        N  0.46882507  0.06036354  0.64138244    -0.26500
C320        C  0.48438203  0.06564798  0.65043603    -0.01800
C321        C  0.47924319  0.07505075  0.66645993     0.06900
C322        C  0.46002007  0.07508451  0.66644223     0.04900
H323        H  0.49840081  0.06292820  0.64562630     0.10100
H324        H  0.45095937  0.08125409  0.67681742     0.08900
N325        N  0.09299912  0.95454624  0.53644944    -0.25500
N326        N  0.08764293  0.93719160  0.53297755    -0.33400
C327        C  0.07164408  0.93743259  0.52339352     0.02800
C328        C  0.06661587  0.95580912  0.52067804     0.08900
C329        C  0.08037912  0.96642650  0.52906429    -0.04200
H330        H  0.06427458  0.92509326  0.51870297     0.09500
H331        H  0.08123250  0.98154444  0.52966349     0.10700
Cu332      Cu  0.10201740  0.91379172  0.54117392     0.44200
Cu333      Cu  0.11751737  0.96025725  0.55090837     0.42000
Cu334      Cu  0.14436046  0.91871125  0.56675663     0.43900
N335        N  0.11695129  0.89130314  0.55073373    -0.32900
N336        N  0.13260435  0.89272696  0.56028666    -0.27100
C337        C  0.13867885  0.87532013  0.56437337    -0.03200
C338        C  0.12615462  0.86262430  0.55693651     0.09000
C339        C  0.11259797  0.87317926  0.54844252     0.02800
H340        H  0.15123073  0.87217235  0.57208300     0.10400
H341        H  0.10045149  0.86811675  0.54110997     0.09500
N342        N  0.15255894  0.94656938  0.57062595    -0.34300
N343        N  0.14291665  0.96136007  0.56496951    -0.26500
C344        C  0.15217173  0.97703027  0.56976894    -0.01800
C345        C  0.16833852  0.97189183  0.57880839     0.06900
C346        C  0.16818281  0.95253752  0.57915481     0.04900
H347        H  0.14742915  0.99112875  0.56691161     0.10100
H348        H  0.17860641  0.94344396  0.58520606     0.08900
N349        N  0.22290372  0.08073319  0.65015262    -0.25500
N350        N  0.24012945  0.08576337  0.65414263    -0.33400
C351        C  0.23991925  0.10166265  0.66408554     0.02800
C352        C  0.22168356  0.10696891  0.66652323     0.08900
C353        C  0.21112255  0.09348100  0.65755016    -0.04200
H354        H  0.25219085  0.10891534  0.66898632     0.09500
H355        H  0.19612286  0.09304399  0.65633694     0.10700
Cu356      Cu  0.26325481  0.07134010  0.64552853     0.44200
Cu357      Cu  0.21744042  0.05677515  0.63440407     0.42000
Cu358      Cu  0.25869743  0.03053717  0.61674537     0.43900
N359        N  0.28563319  0.05693487  0.63512274    -0.32900
N360        N  0.28439216  0.04188908  0.62444896    -0.27100
C361        C  0.30176500  0.03619234  0.62005816    -0.03200
C362        C  0.31422543  0.04832995  0.62847311     0.09000
C363        C  0.30358090  0.06126415  0.63783548     0.02800
H364        H  0.30504458  0.02421471  0.61140755     0.10400
H365        H  0.30846370  0.07302013  0.64599388     0.09500
N366        N  0.23095185  0.02314324  0.61176621    -0.34300
N367        N  0.21632371  0.03254848  0.61810643    -0.26500
C368        C  0.20069014  0.02390492  0.61239340    -0.01800
C369        C  0.20566060  0.00840171  0.60202149     0.06900
C370        C  0.22489759  0.00828344  0.60186736     0.04900
H371        H  0.18671998  0.02856159  0.61562635     0.10100
H372        H  0.23385063  0.99813242  0.59512829     0.08900
C373        C  0.97266023  0.96426444  0.44282958     0.82000
N374        N  0.96208848  0.94894706  0.44641551    -0.76300
C375        C  0.96586322  0.93804404  0.46143317     0.84500
N376        N  0.98033157  0.94238942  0.47277883    -0.76200
C377        C  0.99092388  0.95770843  0.46920941     0.84500
N378        N  0.98714029  0.96859022  0.45418213    -0.78000
N379        N  0.70923507  0.58652313  0.78728749    -0.25500
N380        N  0.69188727  0.59151732  0.78373333    -0.33400
C381        C  0.69175631  0.60793708  0.77468719     0.02800
C382        C  0.70988787  0.61361690  0.77241536     0.08900
C383        C  0.72074260  0.59979787  0.78050782    -0.04200
H384        H  0.67933755  0.61516206  0.77007938     0.09500
H385        H  0.73576814  0.59939130  0.78138627     0.10700
Cu386      Cu  0.66907558  0.57596557  0.79115086     0.44200
Cu387      Cu  0.71529991  0.56166460  0.80125659     0.42000
Cu388      Cu  0.67446007  0.53268762  0.81555777     0.43900
N389        N  0.64691538  0.55965061  0.79889927    -0.32900
N390        N  0.64844968  0.54359498  0.80792983    -0.27100
C391        C  0.63119810  0.53664642  0.81068732    -0.03200
C392        C  0.61849256  0.54903115  0.80292703     0.09000
C393        C  0.62890375  0.56339873  0.79564833     0.02800
H394        H  0.62815801  0.52361759  0.81773607     0.10400
H395        H  0.62381046  0.57569910  0.78847001     0.09500
N396        N  0.70240122  0.52603833  0.82089615    -0.34300
N397        N  0.71683218  0.53638920  0.81575577    -0.26500
C398        C  0.73261714  0.52803201  0.82153826    -0.01800
C399        C  0.72795810  0.51172827  0.83070709     0.06900
C400        C  0.70875216  0.51084300  0.83007978     0.04900
H401        H  0.74646967  0.53349785  0.81927865     0.10100
H402        H  0.70001436  0.50000360  0.83591444     0.08900
N403        N  0.83909320  0.45678635  0.89893840    -0.25500
N404        N  0.84386199  0.43936651  0.90297561    -0.33400
C405        C  0.85993889  0.43935231  0.91244083     0.02800
C406        C  0.86560316  0.45761968  0.91448239     0.08900
C407        C  0.85216611  0.46843413  0.90581575    -0.04200
H408        H  0.86697196  0.42691778  0.91742814     0.09500
H409        H  0.85188520  0.48353636  0.90459705     0.10700
Cu410      Cu  0.82874734  0.41618851  0.89549562     0.44200
Cu411      Cu  0.81487494  0.46307343  0.88423691     0.42000
Cu412      Cu  0.78739399  0.42200016  0.86863972     0.43900
N413        N  0.81323373  0.39398368  0.88618762    -0.32900
N414        N  0.79794044  0.39574292  0.87611695    -0.27100
C415        C  0.79138397  0.37847208  0.87224423    -0.03200
C416        C  0.80322008  0.36550241  0.88036970     0.09000
C417        C  0.81686941  0.37576916  0.88903805     0.02800
H418        H  0.77899861  0.37560238  0.86417642     0.10400
H419        H  0.82863843  0.37044260  0.89680645     0.09500
N420        N  0.78004533  0.44997491  0.86394192    -0.34300
N421        N  0.78987430  0.46463654  0.86954522    -0.26500
C422        C  0.78110121  0.48043077  0.86418677    -0.01800
C423        C  0.76506505  0.47548431  0.85482051     0.06900
C424        C  0.76479243  0.45613728  0.85488834     0.04900
H425        H  0.78607493  0.49446846  0.86689106     0.10100
H426        H  0.75430622  0.44717223  0.84879053     0.08900
N427        N  0.33880617  0.63902652  0.71180431    -0.25500
N428        N  0.33377860  0.64291796  0.69452576    -0.33400
C429        C  0.31759413  0.65227749  0.69467623     0.02800
C430        C  0.31212764  0.65440343  0.71290164     0.08900
C431        C  0.32580350  0.64591666  0.72352734    -0.04200
H432        H  0.31045733  0.65731539  0.68238970     0.09500
H433        H  0.32635887  0.64494430  0.73855474     0.10700
Cu434      Cu  0.34896414  0.63595981  0.67131329     0.44200
Cu435      Cu  0.36341177  0.62477389  0.71779575     0.42000
Cu436      Cu  0.39224679  0.61232596  0.67655283     0.43900
N437        N  0.36532943  0.62875024  0.64900094    -0.32900
N438        N  0.38145348  0.61996298  0.65055683    -0.27100
C439        C  0.38847135  0.61725827  0.63331844    -0.03200
C440        C  0.37605797  0.62478551  0.62057378     0.09000
C441        C  0.36159676  0.63190788  0.63095574     0.02800
H442        H  0.40152145  0.61030431  0.63030839     0.10400
H443        H  0.34920728  0.63880957  0.62581774     0.09500
N444        N  0.39922317  0.60634775  0.70424925    -0.34300
N445        N  0.38889315  0.61076438  0.71892968    -0.26500
C446        C  0.39756109  0.60480301  0.73447550    -0.01800
C447        C  0.41405745  0.59628689  0.72936055     0.06900
C448        C  0.41470627  0.59747801  0.71016423     0.04900
H449        H  0.39223001  0.60657236  0.74846537     0.10100
H450        H  0.42561533  0.59228095  0.70113338     0.08900
N451        N  0.47119120  0.52910025  0.83939484    -0.25500
N452        N  0.48859503  0.52718846  0.84501250    -0.33400
C453        C  0.48896166  0.51820649  0.86138586     0.02800
C454        C  0.47093114  0.51425756  0.86637796     0.08900
C455        C  0.45988175  0.52127152  0.85220835    -0.04200
H456        H  0.50148387  0.51468893  0.86899232     0.09500
H457        H  0.44486867  0.52069824  0.85124110     0.10700
Cu458      Cu  0.51125282  0.53625258  0.83025148     0.44200
Cu459      Cu  0.46473351  0.54238719  0.81440023     0.42000
Cu460      Cu  0.50540262  0.55785061  0.78592274     0.43900
N461        N  0.53330413  0.54368160  0.81377109    -0.32900
N462        N  0.53162513  0.55158204  0.79721539    -0.27100
C463        C  0.54885301  0.55433014  0.79019921    -0.03200
C464        C  0.56167843  0.54775369  0.80308622     0.09000
C465        C  0.55136359  0.54116367  0.81779360     0.02800
H466        H  0.55179975  0.56061211  0.77681360     0.10400
H467        H  0.55655401  0.53492457  0.83050313     0.09500
N468        N  0.47735071  0.56265120  0.77919008    -0.34300
N469        N  0.46298226  0.55709290  0.78938358    -0.26500
C470        C  0.44710989  0.56269378  0.78110629    -0.01800
C471        C  0.45163494  0.57217639  0.76500342     0.06900
C472        C  0.47086130  0.57193221  0.76416715     0.04900
H473        H  0.43328832  0.56011730  0.78650262     0.10100
H474        H  0.47951696  0.57811709  0.75349035     0.08900
N475        N  0.39815735  0.58929550  0.47285260    -0.25500
N476        N  0.40322065  0.58516852  0.49005935    -0.33400
C477        C  0.41318736  0.56927486  0.49000863     0.02800
C478        C  0.41448417  0.56309093  0.47190944     0.08900
C479        C  0.40483674  0.57600096  0.46127388    -0.04200
H480        H  0.41891204  0.56265351  0.50229213     0.09500
H481        H  0.40276429  0.57574319  0.44635039     0.10700
Cu482      Cu  0.39595973  0.60072907  0.51301136     0.44200
Cu483      Cu  0.38226696  0.61289766  0.46683648     0.42000
Cu484      Cu  0.36545360  0.64001921  0.50768927     0.43900
N485        N  0.38522308  0.61526730  0.53525031    -0.32900
N486        N  0.37375715  0.62968124  0.53368772    -0.27100
C487        C  0.36915214  0.63558828  0.55095473    -0.03200
C488        C  0.37826228  0.62427226  0.56372089     0.09000
C489        C  0.38825811  0.61158017  0.55332544     0.02800
H490        H  0.35992131  0.64719163  0.55396465     0.10400
H491        H  0.39702442  0.60038982  0.55847214     0.09500
N492        N  0.36052516  0.64714472  0.47981231    -0.34300
N493        N  0.36659383  0.63740452  0.46528609    -0.26500
C494        C  0.36109805  0.64598228  0.44952005    -0.01800
C495        C  0.35114074  0.66180828  0.45431273     0.06900
C496        C  0.35100863  0.66217097  0.47356233     0.04900
H497        H  0.36418598  0.64105534  0.43559866     0.10100
H498        H  0.34453845  0.67260529  0.48239242     0.08900
N499        N  0.28234010  0.71727017  0.34410675    -0.25500
N500        N  0.27824087  0.73468296  0.33940148    -0.33400
C501        C  0.26854795  0.73470996  0.32345753     0.02800
C502        C  0.26641108  0.71644966  0.31778091     0.08900
C503        C  0.27527173  0.70561704  0.33110078    -0.04200
H504        H  0.26347361  0.74715565  0.31651297     0.09500
H505        H  0.27648841  0.69051170  0.33134486     0.10700
Cu506      Cu  0.28596441  0.75778898  0.35449043     0.44200
Cu507      Cu  0.29738222  0.71125026  0.36821929     0.42000
Cu508      Cu  0.31185212  0.75229177  0.39668640     0.43900
N509        N  0.29500035  0.78005703  0.37007182    -0.32900
N510        N  0.30456767  0.77844754  0.38571105    -0.27100
C511        C  0.30817621  0.79579269  0.39225567    -0.03200
C512        C  0.30041819  0.80863967  0.38004491     0.09000
C513        C  0.29224729  0.79822984  0.36618753     0.02800
H514        H  0.31581064  0.79879756  0.40489169     0.10400
H515        H  0.28479944  0.80342739  0.35415622     0.09500
N516        N  0.31735461  0.72428093  0.40339235    -0.34300
N517        N  0.31223243  0.70970146  0.39315448    -0.26500
C518        C  0.31809764  0.69386639  0.40149645    -0.01800
C519        C  0.32728614  0.69867309  0.41767889     0.06900
C520        C  0.32659023  0.71800210  0.41850061     0.04900
H521        H  0.31579258  0.67988255  0.39616128     0.10100
H522        H  0.33237357  0.72687076  0.42926016     0.08900
N523        N  0.80635688  0.27826698  0.88453287    -0.25500
N524        N  0.79697026  0.27974467  0.86877228    -0.33400
C525        C  0.79406388  0.29788675  0.86484591     0.02800
C526        C  0.80196768  0.30839469  0.87879246     0.08900
C527        C  0.80970703  0.29564772  0.89110582    -0.04200
H528        H  0.78675417  0.30299841  0.85269436     0.09500
H529        H  0.81716776  0.29874240  0.90382443     0.10700
Cu530      Cu  0.78853716  0.25732623  0.85301716     0.44200
Cu531      Cu  0.81375050  0.25226207  0.89566119     0.42000
Cu532      Cu  0.79983996  0.21096812  0.86724845     0.43900
N533        N  0.78147141  0.23408971  0.83775754    -0.32900
N534        N  0.78552769  0.21674036  0.84271674    -0.27100
C535        C  0.77875985  0.20491265  0.82972351    -0.03200
C536        C  0.77016207  0.21555688  0.81611147     0.09000
C537        C  0.77210737  0.23389926  0.82161642     0.02800
H538        H  0.77989055  0.18980770  0.83024336     0.10400
H539        H  0.76698925  0.24623320  0.81450875     0.09500
N540        N  0.81380779  0.20965941  0.89263861    -0.34300
N541        N  0.81877212  0.22432897  0.90282269    -0.26500
C542        C  0.82745246  0.21818438  0.91829649    -0.01800
C543        C  0.82792206  0.19885195  0.91777153     0.06900
C544        C  0.81920981  0.19388988  0.90138411     0.04900
H545        H  0.83301104  0.22714698  0.92909817     0.10100
H546        H  0.81694511  0.17985505  0.89616451     0.08900
N547        N  0.89690806  0.08858608  0.97287587    -0.25500
N548        N  0.90244541  0.08467767  0.98998488    -0.33400
C549        C  0.91166105  0.06834045  0.99002948     0.02800
C550        C  0.91199218  0.06159178  0.97209655     0.08900
C551        C  0.90255090  0.07467268  0.96144155    -0.04200
H552        H  0.91765365  0.06186870  0.00226380     0.09500
H553        H  0.89996754  0.07413733  0.94660567     0.10700
Cu554      Cu  0.89721605  0.10131779  0.01269576     0.44200
Cu555      Cu  0.88191234  0.11286076  0.96694054     0.42000
Cu556      Cu  0.86941829  0.14254607  0.00769788     0.43900
N557        N  0.88955207  0.11775456  0.03484494    -0.32900
N558        N  0.87912844  0.13295331  0.03339379    -0.27100
C559        C  0.87623396  0.13994930  0.05061263    -0.03200
C560        C  0.88539732  0.12852893  0.06322010     0.09000
C561        C  0.89360956  0.11462258  0.05281250     0.02800
H562        H  0.86794296  0.15222894  0.05370882     0.10400
H563        H  0.90167566  0.10288434  0.05789813     0.09500
N564        N  0.86247066  0.14850561  0.98006496    -0.34300
N565        N  0.86700330  0.13789827  0.96557751    -0.26500
C566        C  0.86054232  0.14598992  0.94993150    -0.01800
C567        C  0.85155593  0.16237044  0.95477900     0.06900
C568        C  0.85300283  0.16359975  0.97392395     0.04900
H569        H  0.86235188  0.14037543  0.93604333     0.10100
H570        H  0.84769198  0.17468281  0.98274643     0.08900
N571        N  0.21229184  0.08858377  0.28585426    -0.25500
N572        N  0.19498146  0.09389773  0.28248533    -0.33400
C573        C  0.19508974  0.11027111  0.27335134     0.02800
C574        C  0.21330486  0.11556346  0.27083226     0.08900
C575        C  0.22397117  0.10158028  0.27885356    -0.04200
H576        H  0.18277103  0.11770371  0.26880062     0.09500
H577        H  0.23899683  0.10084934  0.27950454     0.10700
Cu578      Cu  0.17172523  0.07898027  0.29008254     0.44200
Cu579      Cu  0.21848818  0.06375665  0.29981428     0.42000
Cu580      Cu  0.17762421  0.03621528  0.31509964     0.43900
N581        N  0.14962164  0.06288607  0.29868096    -0.32900
N582        N  0.15147119  0.04702541  0.30798898    -0.27100
C583        C  0.13436081  0.04005436  0.31141088    -0.03200
C584        C  0.12135866  0.05220633  0.30382453     0.09000
C585        C  0.13147954  0.06647797  0.29590257     0.02800
H586        H  0.13161620  0.02713694  0.31877771     0.10400
H587        H  0.12609881  0.07858439  0.28860956     0.09500
N588        N  0.20538550  0.02876267  0.32009569    -0.34300
N589        N  0.21999073  0.03862876  0.31456399    -0.26500
C590        C  0.23564716  0.02986602  0.32013961    -0.01800
C591        C  0.23068264  0.01379065  0.32958663     0.06900
C592        C  0.21145267  0.01348957  0.32932916     0.04900
H593        H  0.24960784  0.03488778  0.31755055     0.10100
H594        H  0.20250572  0.00297590  0.33542940     0.08900
N595        N  0.34076039  0.95626425  0.39744859    -0.25500
N596        N  0.34524927  0.93874109  0.40132852    -0.33400
C597        C  0.36123603  0.93835682  0.41094217     0.02800
C598        C  0.36718113  0.95649973  0.41327109     0.08900
C599        C  0.35396178  0.96762850  0.40459373    -0.04200
H600        H  0.36799381  0.92575213  0.41588771     0.09500
H601        H  0.35390604  0.98274813  0.40357974     0.10700
Cu602      Cu  0.32963956  0.91599442  0.39365496     0.44200
Cu603      Cu  0.31655822  0.96279891  0.38266923     0.42000
Cu604      Cu  0.28682086  0.92235906  0.36903201     0.43900
N605        N  0.31300866  0.89409625  0.38574045    -0.32900
N606        N  0.29713784  0.89600455  0.37663080    -0.27100
C607        C  0.28997670  0.87880055  0.37360319    -0.03200
C608        C  0.30203343  0.86574049  0.38127103     0.09000
C609        C  0.31642463  0.87587767  0.38878651     0.02800
H610        H  0.27708116  0.87603063  0.36634219     0.10400
H611        H  0.32856736  0.87045630  0.39588694     0.09500
N612        N  0.28064546  0.95050907  0.36351904    -0.34300
N613        N  0.29129960  0.96486925  0.36835135    -0.26500
C614        C  0.28317176  0.98086164  0.36256814    -0.01800
C615        C  0.26670211  0.97639283  0.35373403     0.06900
C616        C  0.26549501  0.95709009  0.35455803     0.04900
H617        H  0.28886835  0.99472553  0.36464740     0.10100
H618        H  0.25445433  0.94843841  0.34901923     0.08900
N619        N  0.84287774  0.14119291  0.20991341    -0.25500
N620        N  0.83800394  0.14512680  0.19260414    -0.33400
C621        C  0.82150491  0.15394405  0.19259485     0.02800
C622        C  0.81565459  0.15567317  0.21076092     0.08900
C623        C  0.82945215  0.14749554  0.22149758    -0.04200
H624        H  0.81437665  0.15883240  0.18024401     0.09500
H625        H  0.82976698  0.14628586  0.23651468     0.10700
Cu626      Cu  0.85391376  0.13872333  0.16969183     0.44200
Cu627      Cu  0.86784275  0.12753220  0.21605277     0.42000
Cu628      Cu  0.89742690  0.11462652  0.17576881     0.43900
N629        N  0.87125372  0.13196197  0.14796427    -0.32900
N630        N  0.88728855  0.12305085  0.14983431    -0.27100
C631        C  0.89493323  0.12083683  0.13281013    -0.03200
C632        C  0.88304548  0.12883168  0.11988584     0.09000
C633        C  0.86822111  0.13568422  0.12990467     0.02800
H634        H  0.90806306  0.11392048  0.13007527     0.10400
H635        H  0.85605164  0.14277986  0.12450776     0.09500
N636        N  0.90402386  0.10904669  0.20356289    -0.34300
N637        N  0.89344432  0.11375267  0.21796688    -0.26500
C638        C  0.90191458  0.10821562  0.23377230    -0.01800
C639        C  0.91852890  0.09966827  0.22910524     0.06900
C640        C  0.91946054  0.10039301  0.20989786     0.04900
H641        H  0.89636012  0.11027212  0.24763575     0.10100
H642        H  0.93054518  0.09507901  0.20115218     0.08900
N643        N  0.97330515  0.02920037  0.33850186    -0.25500
N644        N  0.99066141  0.02493424  0.34288049    -0.33400
C645        C  0.99093390  0.01526641  0.35886148     0.02800
C646        C  0.97290947  0.01328318  0.36491138     0.08900
C647        C  0.96193685  0.02223540  0.35177300    -0.04200
H648        H  0.00340390  0.01014111  0.36560546     0.09500
H649        H  0.94694350  0.02364253  0.35186690     0.10700
Cu650      Cu  0.01353066  0.03252198  0.32757330     0.44200
Cu651      Cu  0.96706557  0.04452267  0.31456753     0.42000
Cu652      Cu  0.00850587  0.06090014  0.28745851     0.43900
N653        N  0.03601942  0.04240854  0.31301554    -0.32900
N654        N  0.03455851  0.05311757  0.29808880    -0.27100
C655        C  0.05185661  0.05746191  0.29217021    -0.03200
C656        C  0.06454549  0.04897862  0.30403629     0.09000
C657        C  0.05405272  0.03960688  0.31705440     0.02800
H658        H  0.05494605  0.06617631  0.28024669     0.10400
H659        H  0.05910132  0.03146965  0.32871622     0.09500
N660        N  0.98063627  0.06617528  0.28047651    -0.34300
N661        N  0.96600739  0.06031827  0.29012500    -0.26500
C662        C  0.95036676  0.06617069  0.28157695    -0.01800
C663        C  0.95532817  0.07613267  0.26588996     0.06900
C664        C  0.97455914  0.07589550  0.26556229     0.04900
H665        H  0.93640014  0.06332218  0.28643393     0.10100
H666        H  0.98349868  0.08225861  0.25522876     0.08900
N667        N  0.62451770  0.64273283  0.38725932    -0.25500
N668        N  0.63376962  0.64115311  0.37142377    -0.33400
C669        C  0.63754239  0.62305386  0.36803823     0.02800
C670        C  0.63035246  0.61265261  0.38243026     0.08900
C671        C  0.62211830  0.62543723  0.39443958    -0.04200
H672        H  0.64497957  0.61789874  0.35596311     0.09500
H673        H  0.61499483  0.62242445  0.40737130     0.10700
Cu674      Cu  0.64099285  0.66346026  0.35502157     0.44200
Cu675      Cu  0.61620586  0.66888408  0.39754514     0.42000
Cu676      Cu  0.62969151  0.71018139  0.36856038     0.43900
N677        N  0.64813574  0.68639003  0.33944193    -0.32900
N678        N  0.64419750  0.70387077  0.34408427    -0.27100
C679        C  0.65116532  0.71534232  0.33086879    -0.03200
C680        C  0.65976023  0.70431836  0.31747949     0.09000
C681        C  0.65759023  0.68613760  0.32334462     0.02800
H682        H  0.65015259  0.73046362  0.33106652     0.10400
H683        H  0.66262711  0.67359723  0.31651099     0.09500
N684        N  0.61549825  0.71154713  0.39399634    -0.34300
N685        N  0.61069890  0.69690032  0.40428679    -0.26500
C686        C  0.60191814  0.70306594  0.41972863    -0.01800
C687        C  0.60117593  0.72239111  0.41911687     0.06900
C688        C  0.60986767  0.72731912  0.40267816     0.04900
H689        H  0.59653610  0.69411545  0.43061782     0.10100
H690        H  0.61201219  0.74134580  0.39741361     0.08900
N691        N  0.53334017  0.83326333  0.47523664    -0.25500
N692        N  0.52799897  0.83717850  0.49241918    -0.33400
C693        C  0.51862521  0.85342955  0.49259502     0.02800
C694        C  0.51797627  0.86012349  0.47466308     0.08900
C695        C  0.52740386  0.84709412  0.46388291    -0.04200
H696        H  0.51273158  0.85986996  0.50491312     0.09500
H697        H  0.52975493  0.84759940  0.44900592     0.10700
Cu698      Cu  0.53368496  0.82062273  0.51501975     0.44200
Cu699      Cu  0.54841659  0.80901898  0.46912136     0.42000
Cu700      Cu  0.56256286  0.78017200  0.50996815     0.43900
N701        N  0.54177631  0.80449774  0.53717305    -0.32900
N702        N  0.55268966  0.78964097  0.53576927    -0.27100
C703        C  0.55565924  0.78277639  0.55302423    -0.03200
C704        C  0.54601881  0.79391991  0.56558175     0.09000
C705        C  0.53745536  0.80752094  0.55510738     0.02800
H706        H  0.56422407  0.77071164  0.55617429     0.10400
H707        H  0.52892605  0.81896889  0.56012397     0.09500
N708        N  0.56836840  0.77357190  0.48210240    -0.34300
N709        N  0.56318748  0.78385009  0.46761741    -0.26500
C710        C  0.56890320  0.77536957  0.45185064    -0.01800
C711        C  0.57809109  0.75906914  0.45657854     0.06900
C712        C  0.57752950  0.75830980  0.47581497     0.04900
H713        H  0.56649485  0.78069383  0.43795392     0.10100
H714        H  0.58324430  0.74742907  0.48460481     0.08900
N715        N  0.59256617  0.46492308  0.40053836    -0.25500
N716        N  0.58877498  0.48230172  0.40565935    -0.33400
C717        C  0.57268247  0.48268210  0.41510311     0.02800
C718        C  0.56597810  0.46468919  0.41602274     0.08900
C719        C  0.57881715  0.45365494  0.40668825    -0.04200
H720        H  0.56634299  0.49518324  0.42083449     0.09500
H721        H  0.57823602  0.43866637  0.40452888     0.10700
Cu722      Cu  0.60518087  0.50494293  0.39953795     0.44200
Cu723      Cu  0.61648967  0.45833256  0.38541721     0.42000
Cu724      Cu  0.64577511  0.49906702  0.37165095     0.43900
N725        N  0.62100254  0.52707567  0.39069768    -0.32900
N726        N  0.63600834  0.52535268  0.38018182    -0.27100
C727        C  0.64259353  0.54264580  0.37644095    -0.03200
C728        C  0.63108483  0.55557573  0.38515346     0.09000
C729        C  0.61758722  0.54525968  0.39398172     0.02800
H730        H  0.65466637  0.54556662  0.36792127     0.10400
H731        H  0.60593860  0.55054534  0.40198027     0.09500
N732        N  0.65184106  0.47101022  0.36559706    -0.34300
N733        N  0.64139250  0.45653500  0.37051730    -0.26500
C734        C  0.64949222  0.44065074  0.36438043    -0.01800
C735        C  0.66572004  0.44533005  0.35521079     0.06900
C736        C  0.66682317  0.46462052  0.35621530     0.04900
H737        H  0.64395562  0.42672562  0.36646937     0.10100
H738        H  0.67771046  0.47339322  0.35056728     0.08900
N739        N  0.71916570  0.33148222  0.28972387    -0.25500
N740        N  0.73643477  0.32591722  0.28657271    -0.33400
C741        C  0.73625372  0.30945496  0.27757827     0.02800
C742        C  0.71801856  0.30432729  0.27491231     0.08900
C743        C  0.70741110  0.31853813  0.28270694    -0.04200
H744        H  0.74854324  0.30191055  0.27310084     0.09500
H745        H  0.69238841  0.31950800  0.28308684     0.10700
Cu746      Cu  0.75967664  0.34091169  0.29389865     0.44200
Cu747      Cu  0.71343872  0.35678721  0.30314852     0.42000
Cu748      Cu  0.75463287  0.38520732  0.31660679     0.43900
N749        N  0.78197457  0.35753021  0.30068671    -0.32900
N750        N  0.78044478  0.37394750  0.30908545    -0.27100
C751        C  0.79763050  0.38119825  0.31124442    -0.03200
C752        C  0.81033132  0.36864551  0.30378885     0.09000
C753        C  0.79998346  0.35384812  0.29724646     0.02800
H754        H  0.80061987  0.39459679  0.31762020     0.10400
H755        H  0.80510347  0.34135637  0.29039100     0.09500
N756        N  0.72693777  0.39279363  0.32161623    -0.34300
N757        N  0.71228732  0.38263496  0.31674866    -0.26500
C758        C  0.69669370  0.39160143  0.32218229    -0.01800
C759        C  0.70173439  0.40810147  0.33083109     0.06900
C760        C  0.72095360  0.40845945  0.33027260     0.04900
H761        H  0.68271718  0.38639468  0.32009544     0.10100
H762        H  0.72994887  0.41923881  0.33583024     0.08900
N763        N  0.95707432  0.39495435  0.33629271    -0.25500
N764        N  0.93991642  0.40076002  0.33961810    -0.33400
C765        C  0.93969009  0.41124755  0.35511127     0.02800
C766        C  0.95754388  0.41213496  0.36190639     0.08900
C767        C  0.96833794  0.40166596  0.34976229    -0.04200
H768        H  0.92733529  0.41745979  0.36115553     0.09500
H769        H  0.98312976  0.39898223  0.35071248     0.10700
Cu770      Cu  0.91720992  0.39346708  0.32390450     0.44200
Cu771      Cu  0.96338114  0.37796439  0.31352314     0.42000
Cu772      Cu  0.92303307  0.36134421  0.28602353     0.43900
N773        N  0.89518991  0.38168746  0.31001509    -0.32900
N774        N  0.89695893  0.36960401  0.29615860    -0.27100
C775        C  0.87981160  0.36414503  0.29078260    -0.03200
C776        C  0.86690406  0.37334822  0.30185385     0.09000
C777        C  0.87708855  0.38428120  0.31386493     0.02800
H778        H  0.87698548  0.35415458  0.27980570     0.10400
H779        H  0.87179249  0.39325990  0.32480776     0.09500
N780        N  0.95093187  0.35620353  0.27922061    -0.34300
N781        N  0.96530473  0.36214564  0.28916418    -0.26500
C782        C  0.98116961  0.35664266  0.28078241    -0.01800
C783        C  0.97661007  0.34681701  0.26487229     0.06900
C784        C  0.95737838  0.34677165  0.26425158     0.04900
H785        H  0.99501020  0.35972958  0.28584175     0.10100
H786        H  0.94869913  0.34047429  0.25365612     0.08900
N787        N  0.08750731  0.27811025  0.21050513    -0.25500
N788        N  0.09212777  0.27347713  0.19328168    -0.33400
C789        C  0.10816763  0.26386174  0.19345097     0.02800
C790        C  0.11395686  0.26234223  0.21163418     0.08900
C791        C  0.10064378  0.27149593  0.22220740    -0.04200
H792        H  0.11520013  0.25859971  0.18117863     0.09500
H793        H  0.10058115  0.27337668  0.23716252     0.10700
Cu794      Cu  0.07712308  0.28084655  0.17008165     0.44200
Cu795      Cu  0.06360817  0.29357368  0.21638832     0.42000
Cu796      Cu  0.03677852  0.30972696  0.17528071     0.43900
N797        N  0.06210159  0.29057920  0.14776823    -0.32900
N798        N  0.04720927  0.30136543  0.14932505    -0.27100
C799        C  0.04088105  0.30530183  0.13207231    -0.03200
C800        C  0.05242811  0.29649083  0.11930652     0.09000
C801        C  0.06569886  0.28734347  0.12969246     0.02800
H802        H  0.02883268  0.31388846  0.12906939     0.10400
H803        H  0.07717378  0.27898033  0.12454132     0.09500
N804        N  0.02938224  0.31488725  0.20305163    -0.34300
N805        N  0.03900619  0.30904653  0.21769605    -0.26500
C806        C  0.03018836  0.31451085  0.23334993    -0.01800
C807        C  0.01432730  0.32420343  0.22835652     0.06900
C808        C  0.01420039  0.32421639  0.20910386     0.04900
H809        H  0.03493300  0.31151318  0.24733436     0.10100
H810        H  0.00377687  0.33040246  0.20013702     0.08900
N811        N  0.14872958  0.20417641  0.84479703    -0.25500
N812        N  0.15276241  0.18663538  0.84048375    -0.33400
C813        C  0.16258336  0.18615858  0.82461017     0.02800
C814        C  0.16490732  0.20426144  0.81855806     0.08900
C815        C  0.15599410  0.21546479  0.83158781    -0.04200
H816        H  0.16756732  0.17350933  0.81793871     0.09500
H817        H  0.15480153  0.23057344  0.83144850     0.10700
Cu818      Cu  0.14466487  0.16395126  0.85592881     0.44200
Cu819      Cu  0.13329121  0.21077956  0.86861240     0.42000
Cu820      Cu  0.11796121  0.17023117  0.89741243     0.43900
N821        N  0.13514590  0.14201646  0.87160412    -0.32900
N822        N  0.12522615  0.14394303  0.88699343    -0.27100
C823        C  0.12100501  0.12675762  0.89351168    -0.03200
C824        C  0.12875685  0.11368078  0.88154001     0.09000
C825        C  0.13754682  0.12377039  0.86785112     0.02800
H826        H  0.11280088  0.12402587  0.90585093     0.10400
H827        H  0.14499131  0.11830925  0.85591352     0.09500
N828        N  0.11228887  0.19827267  0.90343772    -0.34300
N829        N  0.11768634  0.21270198  0.89315371    -0.26500
C830        C  0.11151097  0.22862968  0.90114068    -0.01800
C831        C  0.10184731  0.22400499  0.91711048     0.06900
C832        C  0.10258064  0.20471197  0.91818517     0.04900
H833        H  0.11392058  0.24254907  0.89571342     0.10100
H834        H  0.09650692  0.19596709  0.92887345     0.08900
N835        N  0.03246283  0.33525887  0.97167036    -0.25500
N836        N  0.02882369  0.34024792  0.98903818    -0.33400
C837        C  0.01925565  0.35637974  0.98908792     0.02800
C838        C  0.01672864  0.36185476  0.97091950     0.08900
C839        C  0.02521705  0.34824689  0.96010541    -0.04200
H840        H  0.01451666  0.36358072  0.00148839     0.09500
H841        H  0.02608864  0.34780296  0.94506594     0.10700
Cu842      Cu  0.03675193  0.32536895  0.01219955     0.44200
Cu843      Cu  0.04715899  0.31091134  0.96527191     0.42000
Cu844      Cu  0.06126667  0.28247030  0.00608737     0.43900
N845        N  0.04519134  0.30913965  0.03425303    -0.32900
N846        N  0.05427503  0.29314309  0.03232324    -0.27100
C847        C  0.05775175  0.28611301  0.04941354    -0.03200
C848        C  0.05042655  0.29838119  0.06247811     0.09000
C849        C  0.04261575  0.31278016  0.05242612     0.02800
H850        H  0.06508684  0.27314872  0.05210301     0.10400
H851        H  0.03560810  0.32504424  0.05787403     0.09500
N852        N  0.06683892  0.27551040  0.97831300    -0.34300
N853        N  0.06182641  0.28573966  0.96374552    -0.26500
C854        C  0.06774758  0.27722586  0.94806896    -0.01800
C855        C  0.07685759  0.26093328  0.95298896     0.06900
C856        C  0.07606372  0.26023611  0.97220220     0.04900
H857        H  0.06558241  0.28254264  0.93412911     0.10100
H858        H  0.08180833  0.24946867  0.98111027     0.08900
N859        N  0.58846782  0.78136681  0.71188478    -0.25500
N860        N  0.59257188  0.77644220  0.69461664    -0.33400
C861        C  0.60885994  0.76725309  0.69438508     0.02800
C862        C  0.61536993  0.76632690  0.71236579     0.08900
C863        C  0.60219467  0.77535779  0.72322884    -0.04200
H864        H  0.61541208  0.76161002  0.68201414     0.09500
H865        H  0.60248976  0.77732623  0.73816976     0.10700
Cu866      Cu  0.57603301  0.78223201  0.67206857     0.44200
Cu867      Cu  0.56404203  0.79581098  0.71828097     0.42000
Cu868      Cu  0.53366876  0.80816310  0.67834181     0.43900
N869        N  0.55891934  0.78956097  0.65042227    -0.32900
N870        N  0.54331880  0.79922668  0.65229603    -0.27100
C871        C  0.53585393  0.80180585  0.63524233    -0.03200
C872        C  0.54740911  0.79324383  0.62231652     0.09000
C873        C  0.56184571  0.78570152  0.63236819     0.02800
H874        H  0.52310423  0.80938932  0.63248000     0.10400
H875        H  0.57373901  0.77811381  0.62698596     0.09500
N876        N  0.52756131  0.81396070  0.70627939    -0.34300
N877        N  0.53844746  0.80948627  0.72050886    -0.26500
C878        C  0.53018018  0.81496846  0.73645706    -0.01800
C879        C  0.51337476  0.82325207  0.73208349     0.06900
C880        C  0.51211074  0.82240990  0.71289301     0.04900
H881        H  0.53595704  0.81295553  0.75022525     0.10100
H882        H  0.50075244  0.82743360  0.70435539     0.08900
N883        N  0.45575989  0.88950695  0.84291414    -0.25500
N884        N  0.43837557  0.89318575  0.84769061    -0.33400
C885        C  0.43813542  0.90272182  0.86378646     0.02800
C886        C  0.45624487  0.90517445  0.86943892     0.08900
C887        C  0.46717790  0.89668814  0.85598556    -0.04200
H888        H  0.42567337  0.90751322  0.87080559     0.09500
H889        H  0.48220651  0.89578831  0.85569785     0.10700
Cu890      Cu  0.41573291  0.88526903  0.83228378     0.44200
Cu891      Cu  0.46221556  0.87481513  0.81868962     0.42000
Cu892      Cu  0.42205728  0.85902044  0.79018246     0.43900
N893        N  0.39406101  0.87709598  0.81569378    -0.32900
N894        N  0.39590729  0.86736512  0.80012442    -0.27100
C895        C  0.37881406  0.86453579  0.79285854    -0.03200
C896        C  0.36592061  0.87299903  0.80453731     0.09000
C897        C  0.37602000  0.88075007  0.81880775     0.02800
H898        H  0.37601581  0.85697271  0.78010047     0.10400
H899        H  0.37069770  0.88849584  0.83063295     0.09500
N900        N  0.45007430  0.85404184  0.78367281    -0.34300
N901        N  0.46435011  0.85978485  0.79387508    -0.26500
C902        C  0.48030253  0.85447109  0.78553338    -0.01800
C903        C  0.47589679  0.84496532  0.76938869     0.06900
C904        C  0.45667641  0.84492005  0.76858785     0.04900
H905        H  0.49409138  0.85741481  0.79081471     0.10100
H906        H  0.44810577  0.83884074  0.75777995     0.08900
N907        N  0.21867044  0.83624121  0.78673636    -0.25500
N908        N  0.23602411  0.83178832  0.78256114    -0.33400
C909        C  0.23633016  0.81567090  0.77299298     0.02800
C910        C  0.21829520  0.80963716  0.77101465     0.08900
C911        C  0.20731256  0.82290515  0.77983487    -0.04200
H912        H  0.24879754  0.80889913  0.76783947     0.09500
H913        H  0.19230863  0.82291606  0.78109804     0.10700
Cu914      Cu  0.25859100  0.84757302  0.78988710     0.44200
Cu915      Cu  0.21246026  0.86054559  0.80154035     0.42000
Cu916      Cu  0.25342186  0.88936315  0.81637777     0.43900
N917        N  0.28078704  0.86335283  0.79822926    -0.32900
N918        N  0.27937876  0.87886408  0.80818751    -0.27100
C919        C  0.29668238  0.88546406  0.81137788    -0.03200
C920        C  0.30925205  0.87341229  0.80288351     0.09000
C921        C  0.29874275  0.85960514  0.79476319     0.02800
H922        H  0.29984671  0.89798037  0.81926419     0.10400
H923        H  0.30373080  0.84761134  0.78699081     0.09500
N924        N  0.22546879  0.89609555  0.82128720    -0.34300
N925        N  0.21102525  0.88584266  0.81598094    -0.26500
C926        C  0.19523127  0.89445165  0.82136642    -0.01800
C927        C  0.19991976  0.91080733  0.83043215     0.06900
C928        C  0.21912435  0.91147252  0.83018039     0.04900
H929        H  0.18135876  0.88915957  0.81884115     0.10100
H930        H  0.22786638  0.92232171  0.83600285     0.08900
N931        N  0.08858310  0.96544192  0.89789558    -0.25500
N932        N  0.08302840  0.98287910  0.90066033    -0.33400
C933        C  0.06676595  0.98289679  0.90980980     0.02800
C934        C  0.06177047  0.96460554  0.91299981     0.08900
C935        C  0.07583562  0.95376441  0.90533871    -0.04200
H936        H  0.05924235  0.99535973  0.91397526     0.09500
H937        H  0.07678766  0.93863830  0.90524280     0.10700
Cu938      Cu  0.09769848  0.00605315  0.89244953     0.44200
Cu939      Cu  0.11344489  0.95944270  0.88407773     0.42000
Cu940      Cu  0.14058649  0.00075488  0.86796288     0.43900
N941        N  0.11383584  0.02836542  0.88468457    -0.32900
N942        N  0.12975735  0.02674720  0.87560055    -0.27100
C943        C  0.13684919  0.04400560  0.87294211    -0.03200
C944        C  0.12469873  0.05682485  0.88081450     0.09000
C945        C  0.11030653  0.04650732  0.88809280     0.02800
H946        H  0.14987001  0.04695380  0.86597110     0.10400
H947        H  0.09820857  0.05173038  0.89543623     0.09500
N948        N  0.14791543  0.97287860  0.86319010    -0.34300
N949        N  0.13828714  0.95817843  0.86902751    -0.26500
C950        C  0.14707402  0.94243943  0.86353594    -0.01800
C951        C  0.16287615  0.94747230  0.85384360     0.06900
C952        C  0.16303533  0.96680467  0.85384647     0.04900
H953        H  0.14226229  0.92837503  0.86636947     0.10100
H954        H  0.17336204  0.97581794  0.84755424     0.08900
C955        C  0.95938435  0.98251577  0.97050697     0.82000
N956        N  0.95588270  0.97195845  0.98583158    -0.76300
C957        C  0.96688644  0.95702845  0.98984779     0.84500
N958        N  0.98152469  0.95278184  0.97864055    -0.76200
C959        C  0.98504511  0.96332579  0.96332410     0.84500
N960        N  0.97403085  0.97825895  0.95932287    -0.78000
N961        N  0.70752219  0.33724895  0.64847361    -0.25500
N962        N  0.69017818  0.33210481  0.65180548    -0.33400
C963        C  0.69014299  0.31623591  0.66177024     0.02800
C964        C  0.70832301  0.31111076  0.66487671     0.08900
C965        C  0.71910421  0.32464536  0.65632714    -0.04200
H966        H  0.67775932  0.30904867  0.66647970     0.09500
H967        H  0.73413734  0.32536462  0.65593142     0.10700
Cu968      Cu  0.66717612  0.34667677  0.64304406     0.44200
Cu969      Cu  0.71377557  0.36144078  0.63356272     0.42000
Cu970      Cu  0.67300989  0.38893319  0.61726628     0.43900
N971        N  0.64513675  0.36221082  0.63351254    -0.32900
N972        N  0.64690681  0.37789884  0.62392117    -0.27100
C973        C  0.62975487  0.38451620  0.61999198    -0.03200
C974        C  0.61685197  0.37228876  0.62755654     0.09000
C975        C  0.62703304  0.35836594  0.63598251     0.02800
H976        H  0.62692009  0.39725303  0.61234102     0.10400
H977        H  0.62172684  0.34634988  0.64345287     0.09500
N978        N  0.70083596  0.39635677  0.61294649    -0.34300
N979        N  0.71536746  0.38649588  0.61875214    -0.26500
C980        C  0.73109396  0.39530625  0.61354489    -0.01800
C981        C  0.72624283  0.41140898  0.60407849     0.06900
C982        C  0.70702094  0.41167670  0.60391547     0.04900
H983        H  0.74502147  0.39032110  0.61643832     0.10100
H984        H  0.69815756  0.42219801  0.59766620     0.08900
N985        N  0.83200518  0.46804608  0.52973998    -0.25500
N986        N  0.83579934  0.48547028  0.52486300    -0.33400
C987        C  0.85116731  0.48574433  0.51427670     0.02800
C988        C  0.85740506  0.46763695  0.51233626     0.08900
C989        C  0.84504460  0.45664277  0.52229454    -0.04200
H990        H  0.85745567  0.49827715  0.50862991     0.09500
H991        H  0.84556937  0.44161190  0.52414185     0.10700
Cu992      Cu  0.82059360  0.50834871  0.53314149     0.44200
Cu993      Cu  0.80922661  0.46168980  0.54660905     0.42000
Cu994      Cu  0.78158932  0.50260289  0.56336678     0.43900
N995        N  0.80563648  0.53056613  0.54339790    -0.32900
N996        N  0.79120251  0.52888018  0.55468788    -0.27100
C997        C  0.78498326  0.54620269  0.55902014    -0.03200
C998        C  0.79612297  0.55911924  0.54989759     0.09000
C999        C  0.80903888  0.54875741  0.54020751     0.02800
H1000       H  0.77339658  0.54915251  0.56820071     0.10400
H1001       H  0.82024942  0.55401016  0.53161826     0.09500
N1002       N  0.77556531  0.47450001  0.56924867    -0.34300
N1003       N  0.78546542  0.45999197  0.56326447    -0.26500
C1004       C  0.77757549  0.44408024  0.56948715    -0.01800
C1005       C  0.76205504  0.44875253  0.57983087     0.06900
C1006       C  0.76113691  0.46808752  0.57942039     0.04900
H1007       H  0.78272111  0.43012969  0.56657324     0.10100
H1008       H  0.75070635  0.47686483  0.58593366     0.08900
N1009       N  0.46905424  0.39390443  0.59245783    -0.25500
N1010       N  0.48629694  0.39793034  0.58750212    -0.33400
C1011       C  0.48613556  0.40756837  0.57149938     0.02800
C1012       C  0.46792252  0.40973616  0.56608118     0.08900
C1013       C  0.45731894  0.40095945  0.57958158    -0.04200
H1014       H  0.49841363  0.41257097  0.56434054     0.09500
H1015       H  0.44231718  0.39977349  0.58003062     0.10700
Cu1016     Cu  0.50939150  0.39013509  0.60232194     0.44200
Cu1017     Cu  0.46332398  0.37894875  0.61664546     0.42000
Cu1018     Cu  0.50430881  0.36443568  0.64476405     0.43900
N1019       N  0.53164796  0.38077819  0.61752054    -0.32900
N1020       N  0.53019160  0.37128831  0.63325272    -0.27100
C1021       C  0.54748258  0.36729903  0.63942361    -0.03200
C1022       C  0.56012893  0.37471130  0.62686485     0.09000
C1023       C  0.54966306  0.38309931  0.61320079     0.02800
H1024       H  0.55058707  0.35958134  0.65200855     0.10400
H1025       H  0.55471290  0.39035578  0.60098249     0.09500
N1026       N  0.47652818  0.35889576  0.65169604    -0.34300
N1027       N  0.46199205  0.36403960  0.64153083    -0.26500
C1028       C  0.44630536  0.35811044  0.64989978    -0.01800
C1029       C  0.45114345  0.34884992  0.66603761     0.06900
C1030       C  0.47035385  0.34956848  0.66680904     0.04900
H1031       H  0.43239647  0.36041173  0.64460107     0.10100
H1032       H  0.47920659  0.34371837  0.67751810     0.08900
N1033       N  0.34212072  0.27821411  0.72244594    -0.25500
N1034       N  0.33841252  0.27319562  0.73976673    -0.33400
C1035       C  0.32285189  0.26286212  0.74012468     0.02800
C1036       C  0.31637794  0.26124390  0.72218095     0.08900
C1037       C  0.32882869  0.27110599  0.71119880    -0.04200
H1038       H  0.31670440  0.25700479  0.75258314     0.09500
H1039       H  0.32828898  0.27297267  0.69625549     0.10700
Cu1040     Cu  0.35434226  0.28051154  0.76232602     0.44200
Cu1041     Cu  0.36541743  0.29444550  0.71595041     0.42000
Cu1042     Cu  0.39511772  0.30834297  0.75610586     0.43900
N1043       N  0.37081856  0.28892960  0.78408253    -0.32900
N1044       N  0.38592607  0.29928770  0.78218261    -0.27100
C1045       C  0.39317648  0.30244494  0.79922771    -0.03200
C1046       C  0.38199825  0.29352491  0.81219333     0.09000
C1047       C  0.36799078  0.28518356  0.80216774     0.02800
H1048       H  0.40550878  0.31067427  0.80195646     0.10400
H1049       H  0.35646511  0.27711389  0.80758423     0.09500
N1050       N  0.40077991  0.31458524  0.72824798    -0.34300
N1051       N  0.39018357  0.30967085  0.71393967    -0.26500
C1052       C  0.39818869  0.31577570  0.69809267    -0.01800
C1053       C  0.41450111  0.32489635  0.70264786     0.06900
C1054       C  0.41574837  0.32390995  0.72181023     0.04900
H1055       H  0.39260571  0.31357800  0.68427116     0.10100
H1056       H  0.42678164  0.32943156  0.73045826     0.08900
N1057       N  0.80292940  0.64630951  0.54934462    -0.25500
N1058       N  0.79421779  0.64445659  0.56545181    -0.33400
C1059       C  0.79047361  0.62630914  0.56853550     0.02800
C1060       C  0.79711151  0.61616679  0.55365507     0.08900
C1061       C  0.80498722  0.62915684  0.54168010    -0.04200
H1062       H  0.78341871  0.62094544  0.58072821     0.09500
H1063       H  0.81166466  0.62637537  0.52845138     0.10700
Cu1064     Cu  0.78758988  0.66652170  0.58252317     0.44200
Cu1065     Cu  0.81112883  0.67258577  0.53932697     0.42000
Cu1066     Cu  0.79801363  0.71360455  0.56837630     0.43900
N1067       N  0.78051350  0.68964075  0.59796797    -0.32900
N1068       N  0.78406304  0.70712500  0.59308115    -0.27100
C1069       C  0.77715684  0.71866121  0.60630563    -0.03200
C1070       C  0.76901384  0.70769469  0.61995496     0.09000
C1071       C  0.77136938  0.68947168  0.61424304     0.02800
H1072       H  0.77791487  0.73379098  0.60593949     0.10400
H1073       H  0.76664791  0.67695757  0.62129093     0.09500
N1074       N  0.81235509  0.71517501  0.54306673    -0.34300
N1075       N  0.81710075  0.70053187  0.53270888    -0.32900
C1076       C  0.82620942  0.70667077  0.51746560    -0.01800
C1077       C  0.82721598  0.72598883  0.51827544     0.06900
C1078       C  0.81832769  0.73092621  0.53463500     0.04900
H1079       H  0.83167743  0.69770935  0.50659532     0.10100
H1080       H  0.81635538  0.74493780  0.54005202     0.08900
N1081       N  0.89788534  0.83503802  0.46113594    -0.25500
N1082       N  0.90139853  0.83944098  0.44361574    -0.33400
C1083       C  0.91159129  0.85513090  0.44295715     0.02800
C1084       C  0.91471563  0.86098726  0.46091805     0.08900
C1085       C  0.90588747  0.84801664  0.47223642    -0.04200
H1086       H  0.91640395  0.86173614  0.43028288     0.09500
H1087       H  0.90536756  0.84796849  0.48729722     0.10700
Cu1088     Cu  0.89244535  0.82417871  0.42119527     0.44200
Cu1089     Cu  0.88236012  0.81120983  0.46784909     0.42000
Cu1090     Cu  0.86547215  0.78292200  0.42719051     0.43900
N1091       N  0.88282326  0.80877088  0.39916338    -0.32900
N1092       N  0.87271816  0.79342334  0.40089275    -0.27100
C1093       C  0.86868045  0.78698416  0.38366745    -0.03200
C1094       C  0.87675155  0.79896970  0.37079010     0.09000
C1095       C  0.88553925  0.81256464  0.38107114     0.02800
H1096       H  0.86051465  0.77460496  0.38075752     0.10400
H1097       H  0.89330280  0.82441953  0.37583568     0.09500
N1098       N  0.86091177  0.77637758  0.45533113    -0.34300
N1099       N  0.86688705  0.78643853  0.46968213    -0.26500
C1100       C  0.86138422  0.77810716  0.48559625    -0.01800
C1101       C  0.85154258  0.76213116  0.48110683     0.06900
C1102       C  0.85148585  0.76142835  0.46186179     0.04900
H1103       H  0.86433532  0.78333611  0.49943060     0.10100
H1104       H  0.84504012  0.75085422  0.45321270     0.08900
N1105       N  0.39672543  0.33554505  0.95887875    -0.25500
N1106       N  0.40033950  0.34040903  0.94149365    -0.33400
C1107       C  0.40989951  0.35651894  0.94132900     0.02800
C1108       C  0.41245136  0.36211660  0.95947174     0.08900
C1109       C  0.40400213  0.34858617  0.97036161    -0.04200
H1110       H  0.41481870  0.36348656  0.92889043     0.09500
H1111       H  0.40332296  0.34814976  0.98540995     0.10700
Cu1112     Cu  0.39287173  0.32489596  0.91865584     0.44200
Cu1113     Cu  0.38228611  0.31105107  0.96528869     0.42000
Cu1114     Cu  0.36877456  0.28155642  0.92493350     0.43900
N1115       N  0.38616078  0.30753099  0.89694259    -0.32900
N1116       N  0.37726186  0.29145598  0.89884712    -0.27100
C1117       C  0.37509138  0.28374875  0.88181688    -0.03200
C1118       C  0.38311818  0.29564707  0.86887391     0.09000
C1119       C  0.38992969  0.31053591  0.87889002     0.02800
H1120       H  0.36814815  0.27059614  0.87908047     0.10400
H1121       H  0.39701314  0.32274473  0.87349462     0.09500
N1122       N  0.36277761  0.27530709  0.95280259    -0.34300
N1123       N  0.36767001  0.28585450  0.96719875    -0.26500
C1124       C  0.36170280  0.27765189  0.98300648    -0.01800
C1125       C  0.35266534  0.26123896  0.97836795     0.06900
C1126       C  0.35357254  0.26015610  0.95916339     0.04900
H1127       H  0.36381300  0.28324469  0.99685545     0.10100
H1128       H  0.34799905  0.24915243  0.95043543     0.08900
N1129       N  0.28100897  0.20702737  0.08744509    -0.25500
N1130       N  0.27598866  0.18971472  0.09150743    -0.33400
C1131       C  0.26568122  0.18969573  0.10706598     0.02800
C1132       C  0.26406701  0.20786746  0.11317896     0.08900
C1133       C  0.27393071  0.21864020  0.10052430    -0.04200
H1134       H  0.25994287  0.17729275  0.11352640     0.09500
H1135       H  0.27589251  0.23365983  0.10083526     0.10700
Cu1136     Cu  0.28354936  0.16668682  0.07624329     0.44200
Cu1137     Cu  0.29736262  0.21273056  0.06406502     0.42000
Cu1138     Cu  0.31174508  0.17110466  0.03562910     0.43900
N1139       N  0.29245965  0.14400078  0.06119948    -0.32900
N1140       N  0.30297983  0.14513382  0.04613829    -0.27100
C1141       C  0.30652916  0.12757425  0.04005886    -0.03200
C1142       C  0.29770877  0.11510845  0.05195742     0.09000
C1143       C  0.28900451  0.12597555  0.06515571     0.02800
H1144       H  0.31499621  0.12415302  0.02805972     0.10400
H1145       H  0.28091323  0.12117890  0.07693157     0.09500
N1146       N  0.31786100  0.19914086  0.02919989    -0.34300
N1147       N  0.31278116  0.21381672  0.03937557    -0.26500
C1148       C  0.31895268  0.22955766  0.03109403    -0.01800
C1149       C  0.32830900  0.22462997  0.01502065     0.06900
C1150       C  0.32737852  0.20529826  0.01420245     0.04900
H1151       H  0.31668626  0.24357995  0.03636832     0.10100
H1152       H  0.33313869  0.19634811  0.00347508     0.08900
N1153       N  0.20561710  0.83745179  0.14787789    -0.25500
N1154       N  0.18830909  0.83391969  0.15296744    -0.33400
C1155       C  0.18779465  0.81829636  0.16328132     0.02800
C1156       C  0.20563915  0.81155490  0.16484266     0.08900
C1157       C  0.21673537  0.82394043  0.15495258    -0.04200
H1158       H  0.17530421  0.81235387  0.16926049     0.09500
H1159       H  0.23166829  0.82325950  0.15313509     0.10700
Cu1160     Cu  0.16602729  0.85030560  0.14602176     0.44200
Cu1161     Cu  0.21199779  0.86104536  0.13180617     0.42000
Cu1162     Cu  0.17146596  0.89144846  0.11866745     0.43900
N1163       N  0.14405906  0.86679530  0.13843125    -0.32900
N1164       N  0.14553677  0.88207389  0.12817067    -0.27100
C1165       C  0.12831661  0.88919380  0.12555122    -0.03200
C1166       C  0.11574521  0.87772779  0.13474336     0.09000
C1167       C  0.12615786  0.86371910  0.14266595     0.02800
H1168       H  0.12519823  0.90161603  0.11750936     0.10400
H1169       H  0.12112642  0.85198610  0.15074864     0.09500
N1170       N  0.19941279  0.89714530  0.11249127    -0.34300
N1171       N  0.21372606  0.88634266  0.11712924    -0.26500
C1172       C  0.22955597  0.89450685  0.11120510    -0.01800
C1173       C  0.22503862  0.91113257  0.10247918     0.06900
C1174       C  0.20587449  0.91240712  0.10352495     0.04900
H1175       H  0.24336377  0.88881304  0.11326935     0.10100
H1176       H  0.19724465  0.92366494  0.09829686     0.08900
N1177       N  0.33777460  0.96649248  0.03806572    -0.25500
N1178       N  0.34299579  0.98389157  0.03460455    -0.33400
C1179       C  0.35926120  0.98374421  0.02544867     0.02800
C1180       C  0.36456729  0.96539548  0.02301266     0.08900
C1181       C  0.35071955  0.95469988  0.03110794    -0.04200
H1182       H  0.36656121  0.99611697  0.02075384     0.09500
H1183       H  0.35000318  0.93957756  0.03176137     0.10700
Cu1184     Cu  0.32792205  0.00723567  0.04190579     0.44200
Cu1185     Cu  0.31301888  0.96039029  0.05186812     0.42000
Cu1186     Cu  0.28547277  0.00160017  0.06716892     0.43900
N1187       N  0.31153682  0.02949107  0.04970148    -0.32900
N1188       N  0.29583442  0.02782084  0.05915207    -0.27100
C1189       C  0.28862248  0.04509585  0.06181779    -0.03200
C1190       C  0.30045376  0.05797516  0.05355603     0.09000
C1191       C  0.31477844  0.04763420  0.04606206     0.02800
H1192       H  0.27573256  0.04802384  0.06905945     0.10400
H1193       H  0.32668722  0.05286304  0.03845707     0.09500
N1194       N  0.27786706  0.97360254  0.07163694    -0.34300
N1195       N  0.28771690  0.95892228  0.06601915    -0.26500
C1196       C  0.27875841  0.94313041  0.07097125    -0.01800
C1197       C  0.26256822  0.94805662  0.08011357     0.06900
C1198       C  0.26240047  0.96742726  0.08032584     0.04900
H1199       H  0.28371375  0.92909361  0.06813863     0.10100
H1200       H  0.25180796  0.97639067  0.08630430     0.08900
N1201       N  0.87982670  0.80290743  0.28385213    -0.25500
N1202       N  0.86380655  0.79399800  0.28560376    -0.33400
C1203       C  0.86006911  0.79123488  0.30370812     0.02800
C1204       C  0.87439018  0.79873525  0.31394720     0.08900
C1205       C  0.88675192  0.80608477  0.30104758    -0.04200
H1206       H  0.84783841  0.78418040  0.30897894     0.09500
H1207       H  0.89979039  0.81306989  0.30391644     0.10700
Cu1208     Cu  0.84760005  0.78558741  0.26361766     0.44200
Cu1209     Cu  0.89090038  0.80964239  0.25767254     0.42000
Cu1210     Cu  0.86312340  0.79307242  0.21713767     0.43900
N1211       N  0.83266627  0.77708601  0.24076680    -0.32900
N1212       N  0.83816914  0.77959365  0.22338436    -0.27100
C1213       C  0.82533484  0.77210047  0.21187565    -0.03200
C1214       C  0.81124911  0.76466852  0.22274508     0.09000
C1215       C  0.81632751  0.76803731  0.24090631     0.02800
H1216       H  0.82626008  0.77197947  0.19683403     0.10400
H1217       H  0.80881564  0.76405702  0.25335167     0.09500
N1218       N  0.88822131  0.80763571  0.21525690    -0.34300
N1219       N  0.89814398  0.81364604  0.22963779    -0.26500
C1220       C  0.91332295  0.82263044  0.22315214    -0.01800
C1221       C  0.91289287  0.82221428  0.20389899     0.06900
C1222       C  0.89684889  0.81264072  0.19936098     0.04900
H1223       H  0.92385328  0.82903253  0.23182725     0.10100
H1224       H  0.89173341  0.80960444  0.18551437     0.08900
N1225       N  0.96944241  0.89126572  0.09387715    -0.25500
N1226       N  0.98663082  0.89687382  0.09052349    -0.33400
C1227       C  0.98699570  0.90717987  0.07493333     0.02800
C1228       C  0.96917861  0.90816102  0.06806047     0.08900
C1229       C  0.95827011  0.89795162  0.08030122    -0.04200
H1230       H  0.99937041  0.91344955  0.06904554     0.09500
H1231       H  0.94342393  0.89560640  0.07945207     0.10700
Cu1232     Cu  0.00896679  0.89030810  0.10693579     0.44200
Cu1233     Cu  0.96309377  0.87498057  0.11720773     0.42000
Cu1234     Cu  0.00330155  0.86187575  0.14740388     0.43900
N1235       N  0.03083161  0.88207888  0.12321110    -0.32900
N1236       N  0.02925015  0.87144191  0.13818117    -0.27100
C1237       C  0.04642435  0.86854035  0.14524070    -0.03200
C1238       C  0.05908429  0.87793251  0.13406432     0.09000
C1239       C  0.04877044  0.88626666  0.12028033     0.02800
H1240       H  0.04944447  0.86021901  0.15746058     0.10400
H1241       H  0.05389045  0.89464966  0.10882927     0.09500
N1242       N  0.97539237  0.85559893  0.15308658    -0.34300
N1243       N  0.96112167  0.86023526  0.14230829    -0.26500
C1244       C  0.94526938  0.85422026  0.15035434    -0.01800
C1245       C  0.94974628  0.84542898  0.16688874     0.06900
C1246       C  0.96889634  0.84653994  0.16822257     0.04900
H1247       H  0.93148669  0.85624147  0.14463234     0.10100
H1248       H  0.97749454  0.84126252  0.17942163     0.08900
C1249       C  0.93701642  0.83719124  0.18015364    -0.11500
C1250       C  0.92616045  0.83036134  0.19111688    -0.13000
C1251       C  0.09579064  0.87889848  0.13520825    -0.11500
C1252       C  0.07901845  0.87847224  0.13545280    -0.13000
C1253       C  0.23779228  0.92455335  0.09447335    -0.11500
C1254       C  0.24886990  0.93548806  0.08791492    -0.13000
C1255       C  0.29862605  0.07804767  0.05263342    -0.11500
C1256       C  0.29817563  0.09493871  0.05174957    -0.13000
C1257       C  0.33697790  0.23717212  0.00180516    -0.11500
C1258       C  0.34412843  0.24801599  0.99099497    -0.13000
C1259       C  0.87611660  0.79813990  0.35076307    -0.11500
C1260       C  0.87581822  0.79848585  0.33394862    -0.13000
C1261       C  0.84296592  0.74908913  0.49390974    -0.11500
C1262       C  0.83579688  0.73843708  0.50490359    -0.13000
C1263       C  0.38356487  0.29360962  0.83214444    -0.11500
C1264       C  0.38355386  0.29385743  0.84893978    -0.13000
C1265       C  0.42770762  0.33326260  0.68999387    -0.11500
C1266       C  0.43861105  0.34028549  0.67923154    -0.13000
C1267       C  0.79614464  0.59613172  0.55161762    -0.11500
C1268       C  0.79549707  0.57924887  0.55087534    -0.13000
C1269       C  0.58011096  0.37399333  0.62747117    -0.11500
C1270       C  0.59689224  0.37361961  0.62730732    -0.13000
C1271       C  0.73868206  0.42492357  0.59581800    -0.11500
C1272       C  0.74924885  0.43598591  0.58869498    -0.13000
C1273       C  0.96364552  0.94624914  0.00642237    -0.16700
C1274       C  0.96205541  0.93723103  0.02053295     0.07300
C1275       C  0.96190575  0.92671718  0.03719614     0.09200
C1276       C  0.96379202  0.91794933  0.05142422    -0.17600
C1277       C  0.04543997  0.95879904  0.92299121    -0.16700
C1278       C  0.03133628  0.95686961  0.93189013     0.07300
C1279       C  0.01485473  0.95732337  0.94261702     0.09200
C1280       C  0.00104133  0.95938848  0.95195382    -0.17600
C1281       C  0.17632547  0.93504854  0.84546999    -0.11500
C1282       C  0.18729530  0.92422084  0.83858126    -0.13000
C1283       C  0.32923052  0.87417972  0.80284626    -0.11500
C1284       C  0.34600309  0.87359903  0.80288596    -0.13000
C1285       C  0.49986216  0.83083655  0.74495837    -0.11500
C1286       C  0.48877198  0.83718499  0.75598680    -0.13000
C1287       C  0.12740186  0.09365159  0.88224212    -0.11500
C1288       C  0.12649208  0.07681726  0.88165826    -0.13000
C1289       C  0.09294377  0.23671604  0.92998781    -0.11500
C1290       C  0.08558024  0.24761333  0.94060420    -0.13000
C1291       C  0.05098060  0.29701463  0.08247477    -0.11500
C1292       C  0.05130294  0.29678084  0.09928838    -0.13000
C1293       C  0.98939953  0.33876232  0.25154456    -0.11500
C1294       C  0.00058591  0.33217191  0.24075396    -0.13000
C1295       C  0.84697104  0.37153998  0.30180912    -0.11500
C1296       C  0.83023628  0.37045153  0.30268220    -0.13000
C1297       C  0.67876237  0.43265463  0.34647596    -0.11500
C1298       C  0.68942866  0.42168834  0.33927550    -0.13000
C1299       C  0.54574260  0.79275999  0.58556799    -0.11500
C1300       C  0.54576448  0.79292400  0.60236805    -0.13000
C1301       C  0.63185149  0.57569677  0.38447307    -0.11500
C1302       C  0.63123563  0.59258598  0.38403716    -0.13000
C1303       C  0.59312109  0.73487580  0.43279187    -0.11500
C1304       C  0.58634698  0.74567299  0.44391565    -0.13000
C1305       C  0.93198392  0.09159331  0.24171345    -0.11500
C1306       C  0.94289079  0.08469026  0.25257017    -0.13000
C1307       C  0.10137189  0.05058287  0.30382589    -0.11500
C1308       C  0.08457169  0.04992813  0.30357627    -0.13000
C1309       C  0.24304551  0.00030851  0.33812091    -0.11500
C1310       C  0.25367041  0.98925375  0.34524427    -0.13000
C1311       C  0.92071950  0.04440509  0.96638112    -0.16700
C1312       C  0.92891042  0.02978032  0.96443829     0.07300
C1313       C  0.93914101  0.01287646  0.96481217     0.09200
C1314       C  0.94822271  0.99879297  0.96676236    -0.17600
C1315       C  0.88530735  0.12962313  0.08319509    -0.11500
C1316       C  0.88493109  0.12938487  0.09997891    -0.13000
C1317       C  0.83601648  0.18637716  0.93132197    -0.11500
C1318       C  0.84295235  0.17559615  0.94228584    -0.13000
C1319       C  0.30064856  0.84565074  0.38115372    -0.11500
C1320       C  0.30058493  0.82875109  0.38113281    -0.13000
C1321       C  0.33575333  0.68605392  0.43091506    -0.11500
C1322       C  0.34275441  0.67515361  0.44174931    -0.13000
C1323       C  0.37758450  0.62505597  0.58374609    -0.11500
C1324       C  0.37731208  0.62491663  0.60056164    -0.13000
C1325       C  0.42768958  0.58787044  0.74155911    -0.11500
C1326       C  0.43883686  0.58077638  0.75204886    -0.13000
C1327       C  0.80206373  0.32850556  0.87982305    -0.11500
C1328       C  0.80208720  0.34540272  0.87994004    -0.13000
C1329       C  0.58169359  0.54776651  0.80204026    -0.11500
C1330       C  0.59849852  0.54776307  0.80242652    -0.13000
C1331       C  0.74061038  0.49861074  0.83933661    -0.11500
C1332       C  0.75160979  0.48794647  0.84645286    -0.13000
C1333       C  0.96901846  0.97545455  0.42660852    -0.16700
C1334       C  0.96686384  0.98463626  0.41267768     0.07300
C1335       C  0.96599935  0.99513306  0.39602894     0.09200
C1336       C  0.96749192  0.00375280  0.38167067    -0.17600
C1337       C  0.95490047  0.92158476  0.46491322    -0.16700
C1338       C  0.94561076  0.90765200  0.46684980     0.07300
C1339       C  0.93463804  0.89124235  0.46750655     0.09200
C1340       C  0.92534160  0.87725759  0.46602639    -0.17600
C1341       C  0.00668224  0.96179389  0.48081555    -0.16700
C1342       C  0.02028539  0.96384335  0.49042891     0.07300
C1343       C  0.03653843  0.96410520  0.50147269     0.09200
C1344       C  0.05046994  0.96191936  0.51056803    -0.17600
C1345       C  0.19320556  0.99505127  0.59348901    -0.11500
C1346       C  0.18215047  0.98426164  0.58668196    -0.13000
C1347       C  0.35094231  0.04899673  0.62726395    -0.11500
C1348       C  0.33419435  0.04814701  0.62766460    -0.13000
C1349       C  0.49145052  0.08336569  0.68014012    -0.11500
C1350       C  0.50196192  0.09032386  0.69134387    -0.13000
C1351       C  0.12675802  0.84252170  0.55764476    -0.11500
C1352       C  0.12644699  0.82564233  0.55807736    -0.13000
C1353       C  0.09354112  0.68368945  0.50587712    -0.11500
C1354       C  0.08643627  0.67304430  0.49486441    -0.13000
C1355       C  0.04386761  0.63018179  0.35262250    -0.11500
C1356       C  0.04468252  0.62939620  0.33583510    -0.13000
C1357       C  0.98976751  0.58057904  0.18292095    -0.11500
C1358       C  0.00047713  0.58784771  0.19374207    -0.13000
C1359       C  0.55090521  0.12057770  0.85168802    -0.11500
C1360       C  0.55051513  0.12131371  0.83489766    -0.13000
C1361       C  0.58850452  0.16953265  0.99311010    -0.11500
C1362       C  0.59545277  0.18053842  0.00387394    -0.13000
C1363       C  0.63233927  0.32415588  0.04960680    -0.11500
C1364       C  0.63222303  0.34105344  0.04987630    -0.13000
C1365       C  0.83157983  0.54214935  0.13338252    -0.11500
C1366       C  0.84835906  0.54169582  0.13403475    -0.13000
C1367       C  0.68925708  0.49426529  0.09804706    -0.11500
C1368       C  0.67839672  0.48333625  0.09116784    -0.13000
C1369       C  0.21585116  0.16953311  0.70314288    -0.16700
C1370       C  0.21392963  0.15527604  0.69431571     0.07300
C1371       C  0.21362805  0.13823495  0.68428667     0.09200
C1372       C  0.21569714  0.12368743  0.67597383    -0.17600
C1373       C  0.17447860  0.20959237  0.80178835    -0.16700
C1374       C  0.18291665  0.21127280  0.78735242     0.07300
C1375       C  0.19307608  0.21075497  0.77048917     0.09200
C1376       C  0.20196174  0.20879553  0.75634886    -0.17600
C1377       C  0.25498561  0.22284439  0.71721445    -0.16700
C1378       C  0.26899728  0.23195207  0.71532862     0.07300
C1379       C  0.28563000  0.24250483  0.71495690     0.09200
C1380       C  0.29983556  0.25131259  0.71676975    -0.17600
C1381       C  0.48179310  0.92308604  0.46725203    -0.16700
C1382       C  0.49063294  0.90873481  0.46626916     0.07300
C1383       C  0.50074216  0.89174455  0.46673304     0.09200
C1384       C  0.50898364  0.87719282  0.46900677    -0.17600
C1385       C  0.42910770  0.96201456  0.45067914    -0.16700
C1386       C  0.41498732  0.96362127  0.44171686     0.07300
C1387       C  0.39818322  0.96383812  0.43147457     0.09200
C1388       C  0.38383652  0.96196915  0.42294632    -0.17600
C1389       C  0.46861509  0.97934632  0.50245977    -0.16700
C1390       C  0.47058583  0.98896179  0.51614702     0.07300
C1391       C  0.47093585  0.99978511  0.53263943     0.09200
C1392       C  0.46894197  0.00866697  0.54680797    -0.17600
C1393       C  0.47998032  0.99493601  0.97066377    -0.16700
C1394       C  0.48937890  0.00880259  0.97238320     0.07300
C1395       C  0.49998477  0.02543125  0.97227518     0.09200
C1396       C  0.50862025  0.03969401  0.96990091    -0.17600
C1397       C  0.42534863  0.95801188  0.98441189    -0.16700
C1398       C  0.41136889  0.95659859  0.99357512     0.07300
C1399       C  0.39489000  0.95686538  0.00425927     0.09200
C1400       C  0.38086324  0.95930141  0.01314102    -0.17600
C1401       C  0.46362366  0.94259904  0.93121721    -0.16700
C1402       C  0.46488583  0.93358208  0.91707989     0.07300
C1403       C  0.46441008  0.92328831  0.90031319     0.09200
C1404       C  0.46197670  0.91478336  0.88602622    -0.17600
C1405       C  0.66964582  0.70991390  0.30098641    -0.16700
C1406       C  0.67854416  0.71179608  0.28685993     0.07300
C1407       C  0.68928715  0.71148169  0.27036707     0.09200
C1408       C  0.69854410  0.70965713  0.25645608    -0.17600
C1409       C  0.75081440  0.72516947  0.21688370    -0.16700
C1410       C  0.76453013  0.73468988  0.21497997     0.07300
C1411       C  0.78089759  0.74561352  0.21485619     0.09200
C1412       C  0.79491930  0.75461281  0.21700423    -0.17600
C1413       C  0.71371602  0.67028965  0.20372608    -0.16700
C1414       C  0.71231382  0.65602861  0.19484271     0.07300
C1415       C  0.71259192  0.63916518  0.18457788     0.09200
C1416       C  0.71492961  0.62485435  0.17597178    -0.17600
C1417       C  0.67226240  0.20892750  0.13446066    -0.16700
C1418       C  0.68076755  0.20688779  0.14880012     0.07300
C1419       C  0.69112509  0.20660839  0.16552683     0.09200
C1420       C  0.70009660  0.20776015  0.17968097    -0.17600
C1421       C  0.79876298  0.16473176  0.21668278    -0.16700
C1422       C  0.78427018  0.17293991  0.21911078     0.07300
C1423       C  0.76731812  0.18301147  0.21950527     0.09200
C1424       C  0.75307951  0.19190373  0.21821089    -0.17600
C1425       C  0.71294782  0.24368542  0.23531790    -0.16700
C1426       C  0.71072367  0.25734920  0.24497481     0.07300
C1427       C  0.71013535  0.27377409  0.25596403     0.09200
C1428       C  0.71206415  0.28790680  0.26497573    -0.17600
C1429       C  0.71419001  0.29510240  0.67543040    -0.16700
C1430       C  0.71645180  0.28124922  0.68472498     0.07300
C1431       C  0.71647777  0.26490105  0.69573383     0.09200
C1432       C  0.71474164  0.25098005  0.70503883    -0.17600
C1433       C  0.76031002  0.20944090  0.79982685    -0.16700
C1434       C  0.75124244  0.20725662  0.78588674     0.07300
C1435       C  0.74009547  0.20765853  0.76972540     0.09200
C1436       C  0.73036024  0.20997705  0.75626171    -0.17600
C1437       C  0.62999446  0.17057036  0.71945968    -0.16700
C1438       C  0.64420777  0.17929399  0.71760136     0.07300
C1439       C  0.66091754  0.18962590  0.71790349     0.09200
C1440       C  0.67508080  0.19845772  0.71966540    -0.17600
C1441       C  0.25168292  0.69373594  0.71975307    -0.16700
C1442       C  0.26548689  0.68429117  0.72142084     0.07300
C1443       C  0.28183174  0.67333260  0.72130439     0.09200
C1444       C  0.29582221  0.66431927  0.71895012    -0.17600
C1445       C  0.21323957  0.74772641  0.73328220    -0.16700
C1446       C  0.21134011  0.76186945  0.74225968     0.07300
C1447       C  0.21092975  0.77861865  0.75268830     0.09200
C1448       C  0.21276860  0.79295156  0.76135423    -0.17600
C1449       C  0.19797649  0.70706034  0.68166588    -0.16700
C1450       C  0.18867224  0.70473045  0.66792065     0.07300
C1451       C  0.17796583  0.70419837  0.65149732     0.09200
C1452       C  0.16902214  0.70634469  0.63749088    -0.17600
C1453       C  0.17506755  0.69470691  0.21875039    -0.16700
C1454       C  0.16154964  0.68480244  0.21733465     0.07300
C1455       C  0.14538032  0.67355566  0.21763813     0.09200
C1456       C  0.13142500  0.66446878  0.21993456    -0.17600
C1457       C  0.22815871  0.71121735  0.25660280    -0.16700
C1458       C  0.23749508  0.70925272  0.27042294     0.07300
C1459       C  0.24806818  0.70875997  0.28699704     0.09200
C1460       C  0.25674926  0.71064980  0.30124199    -0.17600
C1461       C  0.21066984  0.75047419  0.20445055    -0.16700
C1462       C  0.21215293  0.76450225  0.19518757     0.07300
C1463       C  0.21248918  0.78099563  0.18428315     0.09200
C1464       C  0.21086015  0.79506978  0.17511634    -0.17600
C1465       C  0.96545289  0.47707984  0.00560851    -0.16700
C1466       C  0.96726411  0.48613907  0.01967040     0.07300
C1467       C  0.96750598  0.49655564  0.03639309     0.09200
C1468       C  0.96549267  0.50501675  0.05079268    -0.17600
C1469       C  0.00717591  0.37854063  0.96515944    -0.16700
C1470       C  0.99874340  0.39301495  0.96327105     0.07300
C1471       C  0.98860774  0.40995049  0.96382514     0.09200
C1472       C  0.97974039  0.42413597  0.96595786    -0.17600
C1473       C  0.92711973  0.46384047  0.95188246    -0.16700
C1474       C  0.91315873  0.46569774  0.94277319     0.07300
C1475       C  0.89648457  0.46575734  0.93240606     0.09200
C1476       C  0.88219878  0.46352257  0.92391709    -0.17600
C1477       C  0.46696716  0.47596586  0.92768457    -0.16700
C1478       C  0.46472233  0.48515994  0.91379739     0.07300
C1479       C  0.46392622  0.49561586  0.89715311     0.09200
C1480       C  0.46553083  0.50432228  0.88287840    -0.17600
C1481       C  0.45251143  0.42236643  0.96596944    -0.16700
C1482       C  0.44296840  0.40859679  0.96759534     0.07300
C1483       C  0.43188931  0.39229363  0.96748001     0.09200
C1484       C  0.42270297  0.37836646  0.96523259    -0.17600
C1485       C  0.50690820  0.45980326  0.97946939    -0.16700
C1486       C  0.52101027  0.46128506  0.98843369     0.07300
C1487       C  0.53762158  0.46121705  0.99891762     0.09200
C1488       C  0.55174102  0.45904218  0.00771143    -0.17600
C1489       C  0.91997614  0.46287364  0.47604501    -0.16700
C1490       C  0.90557571  0.46096708  0.48447494     0.07300
C1491       C  0.88854414  0.46046241  0.49430704     0.09200
C1492       C  0.87407759  0.46219349  0.50266426    -0.17600
C1493       C  0.96288221  0.42132680  0.37887440    -0.16700
C1494       C  0.96439454  0.42955138  0.39346208     0.07300
C1495       C  0.96342993  0.43953439  0.41041749     0.09200
C1496       C  0.96099597  0.44833614  0.42455233    -0.17600
C1497       C  0.00311737  0.54576409  0.46666217    -0.16700
C1498       C  0.99455397  0.53130997  0.46800949     0.07300
C1499       C  0.98393801  0.51468768  0.46713085     0.09200
C1500       C  0.97462089  0.50084095  0.46479720    -0.17600
C1501       C  0.21859238  0.17643339  0.23190994    -0.16700
C1502       C  0.22094316  0.16274728  0.24145193     0.07300
C1503       C  0.22137710  0.14628222  0.25231554     0.09200
C1504       C  0.21927026  0.13209157  0.26114535    -0.17600
C1505       C  0.22827066  0.21302868  0.17601574    -0.16700
C1506       C  0.23651834  0.21482436  0.16148727     0.07300
C1507       C  0.24624551  0.21530186  0.14438275     0.09200
C1508       C  0.25454279  0.21353122  0.12987622    -0.17600
C1509       C  0.17727048  0.22782834  0.21747537    -0.16700
C1510       C  0.16292232  0.23635253  0.21951431     0.07300
C1511       C  0.14570436  0.24587811  0.21975490     0.09200
C1512       C  0.13096365  0.25364034  0.21758471    -0.17600
C1513       C  0.45137942  0.50083949  0.46541257    -0.16700
C1514       C  0.44254486  0.51507839  0.46362004     0.07300
C1515       C  0.43229938  0.53194236  0.46367785     0.09200
C1516       C  0.42385403  0.54634419  0.46600155    -0.17600
C1517       C  0.54902733  0.45923416  0.42510456    -0.16700
C1518       C  0.53456903  0.45742623  0.43342008     0.07300
C1519       C  0.51776248  0.45796219  0.44358980     0.09200
C1520       C  0.50366388  0.46015941  0.45243549    -0.17600
C1521       C  0.46194325  0.41929878  0.54957098    -0.16700
C1522       C  0.45997467  0.42785824  0.53526071     0.07300
C1523       C  0.46063502  0.43818309  0.51854385     0.09200
C1524       C  0.46306095  0.44715385  0.50455321    -0.17600
C1525       C  0.67729430  0.72900799  0.71906559    -0.16700
C1526       C  0.66330663  0.73825836  0.72046216     0.07300
C1527       C  0.64662795  0.74874251  0.72026943     0.09200
C1528       C  0.63226274  0.75719346  0.71804577    -0.17600
C1529       C  0.71584417  0.67582194  0.73523201    -0.16700
C1530       C  0.71755372  0.66179441  0.74442843     0.07300
C1531       C  0.71768096  0.64495612  0.75474716     0.09200
C1532       C  0.71561231  0.63047809  0.76313085    -0.17600
C1533       C  0.73085209  0.71344330  0.68129767    -0.16700
C1534       C  0.74006509  0.71512256  0.66735786     0.07300
C1535       C  0.75062351  0.71534855  0.65076524     0.09200
C1536       C  0.75933324  0.71338578  0.63653739    -0.17600
loop_ 
_geom_bond_atom_site_label_1 
_geom_bond_atom_site_label_2 
_geom_bond_distance 
_geom_bond_site_symmetry_2 
_ccdc_geom_bond_type 
C1            N2   1.357       .  A
C1            N6   1.357       .  A
C1         C1525   1.436       .  S
N2            C3   1.358       .  A
C3            N4   1.357       .  A
C3         C1529   1.437       .  S
N4            C5   1.358       .  A
C5            N6   1.357       .  A
C5         C1533   1.436       .  S
C7            N8   1.357       .  A
C7           N12   1.357       .  A
C7         C1513   1.434       .  S
N8            C9   1.357       .  A
C9           N10   1.357       .  A
C9         C1520   1.435       .  S
N10          C11   1.357       .  A
C11          N12   1.356       .  A
C11        C1524   1.434       .  S
C13          N14   1.358       .  A
C13          N18   1.357       .  A
C13        C1501   1.436       .  S
N14          C15   1.358       .  A
C15          N16   1.357       .  A
C15        C1505   1.437       .  S
N16          C17   1.357       .  A
C17          N18   1.356       .  A
C17        C1509   1.435       .  S
C19          N20   1.358       .  A
C19          N24   1.357       .  A
C19        C1496   1.436       .  S
N20          C21   1.357       .  A
C21          N22   1.358       .  A
C21        C1489   1.437       .  S
N22          C23   1.358       .  A
C23          N24   1.357       .  A
C23        C1500   1.437       .  S
C25          N26   1.358       .  A
C25          N30   1.356       .  A
C25        C1477   1.435       .  S
N26          C27   1.357       .  A
C27          N28   1.358       .  A
C27        C1485   1.436       .  S
N28          C29   1.357       .  A
C29          N30   1.357       .  A
C29        C1481   1.435       .  S
C31          N32   1.356       .  A
C31          N36   1.358       .  A
C31        C1472   1.435       .  S
N32          C33   1.357       .  A
C33          N34   1.357       .  A
C33        C1473   1.435       .  S
N34          C35   1.357       .  A
C35          N36   1.357       .  A
C35        C1465   1.436   1_556  S
C37          N38   1.358       .  A
C37          N42   1.357       .  A
C37        C1453   1.437       .  S
N38          C39   1.359       .  A
C39          N40   1.358       .  A
C39        C1461   1.439       .  S
N40          C41   1.358       .  A
C41          N42   1.357       .  A
C41        C1457   1.437       .  S
C43          N44   1.357       .  A
C43          N48   1.356       .  A
C43        C1441   1.434       .  S
N44          C45   1.358       .  A
C45          N46   1.357       .  A
C45        C1445   1.434       .  S
N46          C47   1.357       .  A
C47          N48   1.356       .  A
C47        C1449   1.433       .  S
C49          N50   1.357       .  A
C49          N54   1.356       .  A
C49        C1440   1.434       .  S
N50          C51   1.357       .  A
C51          N52   1.357       .  A
C51        C1436   1.435       .  S
N52          C53   1.357       .  A
C53          N54   1.357       .  A
C53        C1432   1.434       .  S
C55          N56   1.357       .  A
C55          N60   1.358       .  A
C55        C1420   1.437       .  S
N56          C57   1.357       .  A
C57          N58   1.358       .  A
C57        C1425   1.437       .  S
N58          C59   1.358       .  A
C59          N60   1.358       .  A
C59        C1424   1.438       .  S
C61          N62   1.358       .  A
C61          N66   1.357       .  A
C61        C1413   1.435       .  S
N62          C63   1.357       .  A
C63          N64   1.358       .  A
C63        C1409   1.436       .  S
N64          C65   1.357       .  A
C65          N66   1.357       .  A
C65        C1408   1.437       .  S
C67          N68   1.356       .  A
C67          N72   1.357       .  A
C67        C1397   1.435       .  S
N68          C69   1.357       .  A
C69          N70   1.357       .  A
C69        C1401   1.434       .  S
N70          C71   1.357       .  A
C71          N72   1.357       .  A
C71        C1393   1.436       .  S
C73          N74   1.358       .  A
C73          N78   1.358       .  A
C73        C1385   1.438       .  S
N74          C75   1.358       .  A
C75          N76   1.358       .  A
C75        C1381   1.437       .  S
N76          C77   1.357       .  A
C77          N78   1.358       .  A
C77        C1389   1.437       .  S
C79          N80   1.358       .  A
C79          N84   1.357       .  A
C79        C1369   1.437       .  S
N80          C81   1.358       .  A
C81          N82   1.358       .  A
C81        C1377   1.438       .  S
N82          C83   1.358       .  A
C83          N84   1.358       .  A
C83        C1376   1.438       .  S
N85          C89   1.349       .  A
N85          N86   1.321       .  A
N85         Cu93   2.082       .  S
N86          C87   1.341       .  A
N86         Cu92   2.052       .  S
C87          C88   1.375       .  A
C87          H90   1.082       .  S
C88        C1416   1.435       .  S
C88          C89   1.383       .  A
C89          H91   1.082       .  S
Cu92         N95   2.051       .  S
Cu93        N103   2.084       .  S
Cu94         N96   2.094       .  S
Cu94        N102   2.095       .  S
N95          C99   1.342       .  A
N95          N96   1.322       .  A
N96          C97   1.350       .  A
C97          C98   1.386       .  A
C97         H100   1.082       .  S
C98        C1365   1.439       .  S
C98          C99   1.374       .  A
C99         H101   1.082       .  S
N102        C106   1.348       .  A
N102        N103   1.326       .  A
N103        C104   1.347       .  A
C104        C105   1.380       .  A
C104        H107   1.082       .  S
C105       C1367   1.444       .  S
C105        C106   1.382       .  A
C106        H108   1.082       .  S
N109        C113   1.350       .  A
N109        N110   1.322       .  A
N109       Cu117   2.094       .  S
N110        C111   1.341       .  A
N110       Cu116   2.048       .  S
C111        C112   1.374       .  A
C111        H114   1.082       .  S
C112       C1364   1.438       .  S
C112        C113   1.386       .  A
C113        H115   1.082       .  S
Cu116       N119   2.048       .  S
Cu117       N127   2.095       .  S
Cu118       N120   2.084       .  S
Cu118       N126   2.086       .  S
N119        C123   1.340       .  A
N119        N120   1.321       .  A
N120        C121   1.349       .  A
C121        C122   1.385       .  A
C121        H124   1.082       .  S
C122       C1488   1.436       .  S
C122        C123   1.374       .  A
C123        H125   1.082       .  S
N126        C130   1.347       .  A
N126        N127   1.326       .  A
N127        C128   1.348       .  A
C128        C129   1.382       .  A
C128        H131   1.082       .  S
C129       C1368   1.444       .  S
C129        C130   1.380       .  A
C130        H132   1.082       .  S
N133        C137   1.349       .  A
N133        N134   1.322       .  A
N133       Cu141   2.084       .  S
N134        C135   1.341       .  A
N134       Cu140   2.055       .  S
C135        C136   1.375       .  A
C135        H138   1.082       .  S
C136       C1396   1.437       .  S
C136        C137   1.384       .  A
C137        H139   1.082       .  S
Cu140       N143   2.054       .  S
Cu141       N151   2.086       .  S
Cu142       N144   2.092       .  S
Cu142       N150   2.093       .  S
N143        C147   1.342       .  A
N143        N144   1.322       .  A
N144        C145   1.349       .  A
C145        C146   1.386       .  A
C145        H148   1.082       .  S
C146       C1359   1.439       .  S
C146        C147   1.375       .  A
C147        H149   1.082       .  S
N150        C154   1.348       .  A
N150        N151   1.326       .  A
N151        C152   1.347       .  A
C152        C153   1.380       .  A
C152        H155   1.082       .  S
C153       C1361   1.444       .  S
C153        C154   1.382       .  A
C154        H156   1.082       .  S
N157        C161   1.350       .  A
N157        N158   1.321       .  A
N157       Cu165   2.089       .  S
N158        C159   1.341       .  A
N158       Cu164   2.049       .  S
C159        C160   1.374       .  A
C159        H162   1.082       .  S
C160       C1417   1.438       .  S
C160        C161   1.385       .  A
C161        H163   1.082       .  S
Cu164       N167   2.047       .  S
Cu165       N175   2.091       .  S
Cu166       N168   2.093       .  S
Cu166       N174   2.094       .  S
N167        C171   1.341       .  A
N167        N168   1.321       .  A
N168        C169   1.350       .  A
C169        C170   1.387       .  A
C169        H172   1.082       .  S
C170       C1363   1.438       .  S
C170        C171   1.373       .  A
C171        H173   1.082       .  S
N174        C178   1.348       .  A
N174        N175   1.327       .  A
N175        C176   1.348       .  A
C176        C177   1.381       .  A
C176        H179   1.082       .  S
C177       C1362   1.444       .  S
C177        C178   1.381       .  A
C178        H180   1.082       .  S
N181        C185   1.350       .  A
N181        N182   1.321       .  A
N181       Cu189   2.085       .  S
N182        C183   1.340       .  A
N182       Cu188   2.048       .  S
C183        C184   1.374       .  A
C183        H186   1.082       .  S
C184       C1468   1.436       .  S
C184        C185   1.385       .  A
C185        H187   1.082       .  S
Cu188       N191   2.048       .  S
Cu189       N199   2.088       .  S
Cu190       N192   2.097       .  S
Cu190       N198   2.098       .  S
N191        C195   1.341       .  A
N191        N192   1.322       .  A
N192        C193   1.350       .  A
C193        C194   1.387       .  A
C193        H196   1.082       .  S
C194       C1366   1.439       .  S
C194        C195   1.374       .  A
C195        H197   1.082       .  S
N198        C202   1.349       .  A
N198        N199   1.327       .  A
N199        C200   1.347       .  A
C200        C201   1.380       .  A
C200        H203   1.082       .  S
C201       C1357   1.445       .  S
C201        C202   1.382       .  A
C202        H204   1.082       .  S
N205        C209   1.350       .  A
N205        N206   1.322       .  A
N205       Cu213   2.088       .  S
N206        C207   1.341       .  A
N206       Cu212   2.055       .  S
C207        C208   1.375       .  A
C207        H210   1.082       .  S
C208       C1456   1.438       .  S
C208        C209   1.385       .  A
C209        H211   1.082       .  S
Cu212       N215   2.055       .  S
Cu213       N223   2.090       .  S
Cu214       N216   2.095       .  S
Cu214       N222   2.096       .  S
N215        C219   1.342       .  A
N215        N216   1.322       .  A
N216        C217   1.350       .  A
C217        C218   1.386       .  A
C217        H220   1.082       .  S
C218       C1356   1.440       .  S
C218        C219   1.375       .  A
C219        H221   1.082       .  S
N222        C226   1.349       .  A
N222        N223   1.326       .  A
N223        C224   1.348       .  A
C224        C225   1.381       .  A
C224        H227   1.082       .  S
C225       C1358   1.446       .  S
C225        C226   1.382       .  A
C226        H228   1.082       .  S
N229        C233   1.350       .  A
N229        N230   1.322       .  A
N229       Cu237   2.088       .  S
N230        C231   1.340       .  A
N230       Cu236   2.051       .  S
C231        C232   1.374       .  A
C231        H234   1.082       .  S
C232       C1497   1.438       .  S
C232        C233   1.386       .  A
C233        H235   1.082       .  S
Cu236       N239   2.050       .  S
Cu237       N247   2.090       .  S
Cu238       N240   2.094       .  S
Cu238       N246   2.095       .  S
N239        C243   1.342       .  A
N239        N240   1.321       .  A
N240        C241   1.350       .  A
C241        C242   1.387       .  A
C241        H244   1.082       .  S
C242       C1355   1.440       .  S
C242        C243   1.375       .  A
C243        H245   1.082       .  S
N246        C250   1.348       .  A
N246        N247   1.327       .  A
N247        C248   1.347       .  A
C248        C249   1.380       .  A
C248        H251   1.082       .  S
C249       C1354   1.444       .  S
C249        C250   1.381       .  A
C250        H252   1.082       .  S
N253        C257   1.348       .  A
N253        N254   1.322       .  A
N253       Cu261   2.080       .  S
N254        C255   1.340       .  A
N254       Cu260   2.051       .  S
C255        C256   1.374       .  A
C255        H258   1.082       .  S
C256       C1452   1.433       .  S
C256        C257   1.383       .  A
C257        H259   1.082       .  S
Cu260       N263   2.050       .  S
Cu261       N271   2.082       .  S
Cu262       N264   2.090       .  S
Cu262       N270   2.091       .  S
N263        C267   1.342       .  A
N263        N264   1.322       .  A
N264        C265   1.349       .  A
C265        C266   1.385       .  A
C265        H268   1.082       .  S
C266       C1352   1.437       .  S
C266        C267   1.374       .  A
C267        H269   1.082       .  S
N270        C274   1.348       .  A
N270        N271   1.325       .  A
N271        C272   1.347       .  A
C272        C273   1.380       .  A
C272        H275   1.082       .  S
C273       C1353   1.444       .  S
C273        C274   1.382       .  A
C274        H276   1.082       .  S
N277        C281   1.349       .  A
N277        N278   1.321       .  A
N277       Cu285   2.083       .  S
N278        C279   1.340       .  A
N278       Cu284   2.049       .  S
C279        C280   1.374       .  A
C279        H282   1.082       .  S
C280       C1437   1.435       .  S
C280        C281   1.384       .  A
C281        H283   1.082       .  S
Cu284       N287   2.049       .  S
Cu285       N295   2.085       .  S
Cu286       N288   2.096       .  S
Cu286       N294   2.097       .  S
N287        C291   1.341       .  A
N287        N288   1.322       .  A
N288        C289   1.350       .  A
C289        C290   1.387       .  A
C289        H292   1.082       .  S
C290       C1360   1.439       .  S
C290        C291   1.374       .  A
C291        H293   1.082       .  S
N294        C298   1.349       .  A
N294        N295   1.326       .  A
N295        C296   1.347       .  A
C296        C297   1.380       .  A
C296        H299   1.082       .  S
C297       C1350   1.445       .  S
C297        C298   1.383       .  A
C298        H300   1.082       .  S
N301        C305   1.350       .  A
N301        N302   1.322       .  A
N301       Cu309   2.091       .  S
N302        C303   1.340       .  A
N302       Cu308   2.049       .  S
C303        C304   1.374       .  A
C303        H306   1.082       .  S
C304       C1392   1.438       .  S
C304        C305   1.386       .  A
C305        H307   1.082       .  S
Cu308       N311   2.049       .  S
Cu309       N319   2.093       .  S
Cu310       N312   2.089       .  S
Cu310       N318   2.091       .  S
N311        C315   1.341       .  A
N311        N312   1.322       .  A
N312        C313   1.349       .  A
C313        C314   1.385       .  A
C313        H316   1.082       .  S
C314       C1347   1.436       .  S
C314        C315   1.374       .  A
C315        H317   1.082       .  S
N318        C322   1.348       .  A
N318        N319   1.326       .  A
N319        C320   1.348       .  A
C320        C321   1.381       .  A
C320        H323   1.082       .  S
C321       C1349   1.445       .  S
C321        C322   1.381       .  A
C322        H324   1.082       .  S
N325        C329   1.350       .  A
N325        N326   1.322       .  A
N325       Cu333   2.086       .  S
N326        C327   1.340       .  A
N326       Cu332   2.050       .  S
C327        C328   1.374       .  A
C327        H330   1.082       .  S
C328       C1344   1.436       .  S
C328        C329   1.385       .  A
C329        H331   1.082       .  S
Cu332       N335   2.049       .  S
Cu333       N343   2.088       .  S
Cu334       N336   2.092       .  S
Cu334       N342   2.093       .  S
N335        C339   1.342       .  A
N335        N336   1.322       .  A
N336        C337   1.349       .  A
C337        C338   1.385       .  A
C337        H340   1.082       .  S
C338       C1351   1.437       .  S
C338        C339   1.374       .  A
C339        H341   1.082       .  S
N342        C346   1.349       .  A
N342        N343   1.326       .  A
N343        C344   1.347       .  A
C344        C345   1.380       .  A
C344        H347   1.082       .  S
C345       C1346   1.445       .  S
C345        C346   1.382       .  A
C346        H348   1.082       .  S
N349        C353   1.350       .  A
N349        N350   1.321       .  A
N349       Cu357   2.087       .  S
N350        C351   1.340       .  A
N350       Cu356   2.048       .  S
C351        C352   1.374       .  A
C351        H354   1.082       .  S
C352       C1372   1.437       .  S
C352        C353   1.386       .  A
C353        H355   1.082       .  S
Cu356       N359   2.048       .  S
Cu357       N367   2.089       .  S
Cu358       N360   2.092       .  S
Cu358       N366   2.094       .  S
N359        C363   1.341       .  A
N359        N360   1.322       .  A
N360        C361   1.349       .  A
C361        C362   1.386       .  A
C361        H364   1.082       .  S
C362       C1348   1.436       .  S
C362        C363   1.373       .  A
C363        H365   1.082       .  S
N366        C370   1.349       .  A
N366        N367   1.326       .  A
N367        C368   1.347       .  A
C368        C369   1.380       .  A
C368        H371   1.082       .  S
C369       C1345   1.445   1_545  S
C369        C370   1.382       .  A
C370        H372   1.082   1_545  S
C373        N374   1.357       .  A
C373        N378   1.358       .  A
C373       C1333   1.437       .  S
N374        C375   1.358       .  A
C375        N376   1.357       .  A
C375       C1337   1.438       .  S
N376        C377   1.358       .  A
C377        N378   1.357       .  A
C377       C1341   1.436   1_655  S
N379        C383   1.350       .  A
N379        N380   1.321       .  A
N379       Cu387   2.085       .  S
N380        C381   1.341       .  A
N380       Cu386   2.052       .  S
C381        C382   1.375       .  A
C381        H384   1.082       .  S
C382       C1532   1.437       .  S
C382        C383   1.385       .  A
C383        H385   1.082       .  S
Cu386       N389   2.051       .  S
Cu387       N397   2.087       .  S
Cu388       N390   2.097       .  S
Cu388       N396   2.098       .  S
N389        C393   1.342       .  A
N389        N390   1.322       .  A
N390        C391   1.351       .  A
C391        C392   1.387       .  A
C391        H394   1.082       .  S
C392       C1330   1.440       .  S
C392        C393   1.374       .  A
C393        H395   1.082       .  S
N396        C400   1.349       .  A
N396        N397   1.327       .  A
N397        C398   1.347       .  A
C398        C399   1.379       .  A
C398        H401   1.082       .  S
C399       C1331   1.444       .  S
C399        C400   1.382       .  A
C400        H402   1.082       .  S
N403        C407   1.349       .  A
N403        N404   1.322       .  A
N403       Cu411   2.084       .  S
N404        C405   1.341       .  A
N404       Cu410   2.052       .  S
C405        C406   1.375       .  A
C405        H408   1.082       .  S
C406       C1476   1.435       .  S
C406        C407   1.384       .  A
C407        H409   1.082       .  S
Cu410       N413   2.051       .  S
Cu411       N421   2.087       .  S
Cu412       N414   2.091       .  S
Cu412       N420   2.093       .  S
N413        C417   1.342       .  A
N413        N414   1.322       .  A
N414        C415   1.349       .  A
C415        C416   1.386       .  A
C415        H418   1.082       .  S
C416       C1328   1.438       .  S
C416        C417   1.374       .  A
C417        H419   1.082       .  S
N420        C424   1.348       .  A
N420        N421   1.326       .  A
N421        C422   1.347       .  A
C422        C423   1.381       .  A
C422        H425   1.082       .  S
C423       C1332   1.444       .  S
C423        C424   1.381       .  A
C424        H426   1.082       .  S
N427        C431   1.349       .  A
N427        N428   1.322       .  A
N427       Cu435   2.084       .  S
N428        C429   1.340       .  A
N428       Cu434   2.052       .  S
C429        C430   1.374       .  A
C429        H432   1.082       .  S
C430       C1444   1.435       .  S
C430        C431   1.384       .  A
C431        H433   1.082       .  S
Cu434       N437   2.051       .  S
Cu435       N445   2.087       .  S
Cu436       N438   2.094       .  S
Cu436       N444   2.095       .  S
N437        C441   1.342       .  A
N437        N438   1.321       .  A
N438        C439   1.350       .  A
C439        C440   1.386       .  A
C439        H442   1.082       .  S
C440       C1324   1.440       .  S
C440        C441   1.375       .  A
C441        H443   1.082       .  S
N444        C448   1.348       .  A
N444        N445   1.326       .  A
N445        C446   1.347       .  A
C446        C447   1.381       .  A
C446        H449   1.082       .  S
C447       C1325   1.445       .  S
C447        C448   1.382       .  A
C448        H450   1.082       .  S
N451        C455   1.349       .  A
N451        N452   1.321       .  A
N451       Cu459   2.083       .  S
N452        C453   1.340       .  A
N452       Cu458   2.048       .  S
C453        C454   1.374       .  A
C453        H456   1.082       .  S
C454       C1480   1.435       .  S
C454        C455   1.384       .  A
C455        H457   1.082       .  S
Cu458       N461   2.048       .  S
Cu459       N469   2.085       .  S
Cu460       N462   2.099       .  S
Cu460       N468   2.101       .  S
N461        C465   1.341       .  A
N461        N462   1.322       .  A
N462        C463   1.351       .  A
C463        C464   1.388       .  A
C463        H466   1.082       .  S
C464       C1329   1.440       .  S
C464        C465   1.374       .  A
C465        H467   1.082       .  S
N468        C472   1.349       .  A
N468        N469   1.327       .  A
N469        C470   1.347       .  A
C470        C471   1.379       .  A
C470        H473   1.082       .  S
C471       C1326   1.445       .  S
C471        C472   1.383       .  A
C472        H474   1.082       .  S
N475        C479   1.349       .  A
N475        N476   1.321       .  A
N475       Cu483   2.080       .  S
N476        C477   1.341       .  A
N476       Cu482   2.053       .  S
C477        C478   1.375       .  A
C477        H480   1.082       .  S
C478       C1516   1.435       .  S
C478        C479   1.383       .  A
C479        H481   1.082       .  S
Cu482       N485   2.053       .  S
Cu483       N493   2.082       .  S
Cu484       N486   2.095       .  S
Cu484       N492   2.096       .  S
N485        C489   1.342       .  A
N485        N486   1.322       .  A
N486        C487   1.350       .  A
C487        C488   1.386       .  A
C487        H490   1.082       .  S
C488       C1323   1.440       .  S
C488        C489   1.375       .  A
C489        H491   1.082       .  S
N492        C496   1.349       .  A
N492        N493   1.326       .  A
N493        C494   1.347       .  A
C494        C495   1.380       .  A
C494        H497   1.082       .  S
C495       C1322   1.444       .  S
C495        C496   1.382       .  A
C496        H498   1.082       .  S
N499        C503   1.350       .  A
N499        N500   1.321       .  A
N499       Cu507   2.086       .  S
N500        C501   1.340       .  A
N500       Cu506   2.050       .  S
C501        C502   1.374       .  A
C501        H504   1.082       .  S
C502       C1460   1.437       .  S
C502        C503   1.385       .  A
C503        H505   1.082       .  S
Cu506       N509   2.050       .  S
Cu507       N517   2.088       .  S
Cu508       N510   2.093       .  S
Cu508       N516   2.094       .  S
N509        C513   1.342       .  A
N509        N510   1.322       .  A
N510        C511   1.350       .  A
C511        C512   1.386       .  A
C511        H514   1.082       .  S
C512       C1320   1.438       .  S
C512        C513   1.374       .  A
C513        H515   1.082       .  S
N516        C520   1.349       .  A
N516        N517   1.326       .  A
N517        C518   1.347       .  A
C518        C519   1.380       .  A
C518        H521   1.082       .  S
C519       C1321   1.444       .  S
C519        C520   1.382       .  A
C520        H522   1.082       .  S
N523        C527   1.349       .  A
N523        N524   1.322       .  A
N523       Cu531   2.090       .  S
N524        C525   1.342       .  A
N524       Cu530   2.051       .  S
C525        C526   1.374       .  A
C525        H528   1.082       .  S
C526       C1327   1.438       .  S
C526        C527   1.385       .  A
C527        H529   1.082       .  S
Cu530       N533   2.052       .  S
Cu531       N541   2.091       .  S
Cu532       N534   2.081       .  S
Cu532       N540   2.084       .  S
N533        C537   1.340       .  A
N533        N534   1.321       .  A
N534        C535   1.349       .  A
C535        C536   1.384       .  A
C535        H538   1.082       .  S
C536       C1433   1.435       .  S
C536        C537   1.375       .  A
C537        H539   1.082       .  S
N540        C544   1.346       .  A
N540        N541   1.326       .  A
N541        C542   1.348       .  A
C542        C543   1.381       .  A
C542        H545   1.082       .  S
C543       C1317   1.442       .  S
C543        C544   1.379       .  A
C544        H546   1.082       .  S
N547        C551   1.350       .  A
N547        N548   1.321       .  A
N547       Cu555   2.084       .  S
N548        C549   1.340       .  A
N548       Cu554   2.051   1_556  S
C549        C550   1.374       .  A
C549        H552   1.082   1_556  S
C550       C1311   1.436       .  S
C550        C551   1.385       .  A
C551        H553   1.082       .  S
Cu554       N557   2.050       .  S
Cu555       N565   2.085       .  S
Cu556       N558   2.088       .  S
Cu556       N564   2.090   1_554  S
N557        C561   1.342       .  A
N557        N558   1.322       .  A
N558        C559   1.349       .  A
C559        C560   1.385       .  A
C559        H562   1.082       .  S
C560       C1315   1.436       .  S
C560        C561   1.374       .  A
C561        H563   1.082       .  S
N564        C568   1.348       .  A
N564        N565   1.326       .  A
N565        C566   1.346       .  A
C566        C567   1.379       .  A
C566        H569   1.082       .  S
C567       C1318   1.442       .  S
C567        C568   1.381       .  A
C568        H570   1.082       .  S
N571        C575   1.349       .  A
N571        N572   1.322       .  A
N571       Cu579   2.085       .  S
N572        C573   1.341       .  A
N572       Cu578   2.057       .  S
C573        C574   1.375       .  A
C573        H576   1.082       .  S
C574       C1504   1.436       .  S
C574        C575   1.384       .  A
C575        H577   1.082       .  S
Cu578       N581   2.057       .  S
Cu579       N589   2.087       .  S
Cu580       N582   2.094       .  S
Cu580       N588   2.095       .  S
N581        C585   1.343       .  A
N581        N582   1.322       .  A
N582        C583   1.350       .  A
C583        C584   1.386       .  A
C583        H586   1.082       .  S
C584       C1307   1.441       .  S
C584        C585   1.376       .  A
C585        H587   1.082       .  S
N588        C592   1.349       .  A
N588        N589   1.326       .  A
N589        C590   1.348       .  A
C590        C591   1.381       .  A
C590        H593   1.082       .  S
C591       C1309   1.446       .  S
C591        C592   1.382       .  A
C592        H594   1.082       .  S
N595        C599   1.350       .  A
N595        N596   1.321       .  A
N595       Cu603   2.090       .  S
N596        C597   1.341       .  A
N596       Cu602   2.050       .  S
C597        C598   1.375       .  A
C597        H600   1.082       .  S
C598       C1388   1.439       .  S
C598        C599   1.386       .  A
C599        H601   1.082       .  S
Cu602       N605   2.049       .  S
Cu603       N613   2.092       .  S
Cu604       N606   2.094       .  S
Cu604       N612   2.095       .  S
N605        C609   1.341       .  A
N605        N606   1.322       .  A
N606        C607   1.350       .  A
C607        C608   1.386       .  A
C607        H610   1.082       .  S
C608       C1319   1.438       .  S
C608        C609   1.374       .  A
C609        H611   1.082       .  S
N612        C616   1.349       .  A
N612        N613   1.327       .  A
N613        C614   1.348       .  A
C614        C615   1.381       .  A
C614        H617   1.082       .  S
C615       C1310   1.446       .  S
C615        C616   1.382       .  A
C616        H618   1.082       .  S
N619        C623   1.350       .  A
N619        N620   1.322       .  A
N619       Cu627   2.088       .  S
N620        C621   1.341       .  A
N620       Cu626   2.053       .  S
C621        C622   1.375       .  A
C621        H624   1.082       .  S
C622       C1421   1.438       .  S
C622        C623   1.385       .  A
C623        H625   1.082       .  S
Cu626       N629   2.053       .  S
Cu627       N637   2.089       .  S
Cu628       N630   2.088       .  S
Cu628       N636   2.090       .  S
N629        C633   1.342       .  A
N629        N630   1.322       .  A
N630        C631   1.349       .  A
C631        C632   1.384       .  A
C631        H634   1.082       .  S
C632       C1316   1.436       .  S
C632        C633   1.374       .  A
C633        H635   1.082       .  S
N636        C640   1.348       .  A
N636        N637   1.326       .  A
N637        C638   1.347       .  A
C638        C639   1.381       .  A
C638        H641   1.082       .  S
C639       C1305   1.445       .  S
C639        C640   1.382       .  A
C640        H642   1.082       .  S
N643        C647   1.351       .  A
N643        N644   1.322       .  A
N643       Cu651   2.086       .  S
N644        C645   1.340       .  A
N644       Cu650   2.050   1_655  S
C645        C646   1.373       .  A
C645        H648   1.082   1_655  S
C646       C1336   1.437       .  S
C646        C647   1.386       .  A
C647        H649   1.082       .  S
Cu650       N653   2.051       .  S
Cu651       N661   2.088       .  S
Cu652       N654   2.096       .  S
Cu652       N660   2.098   1_455  S
N653        C657   1.343       .  A
N653        N654   1.321       .  A
N654        C655   1.350       .  A
C655        C656   1.387       .  A
C655        H658   1.082       .  S
C656       C1308   1.441       .  S
C656        C657   1.375       .  A
C657        H659   1.082       .  S
N660        C664   1.349       .  A
N660        N661   1.327       .  A
N661        C662   1.347       .  A
C662        C663   1.380       .  A
C662        H665   1.082       .  S
C663       C1306   1.445       .  S
C663        C664   1.382       .  A
C664        H666   1.082       .  S
N667        C671   1.350       .  A
N667        N668   1.321       .  A
N667       Cu675   2.093       .  S
N668        C669   1.342       .  A
N668       Cu674   2.049       .  S
C669        C670   1.374       .  A
C669        H672   1.082       .  S
C670       C1302   1.439       .  S
C670        C671   1.387       .  A
C671        H673   1.082       .  S
Cu674       N677   2.049       .  S
Cu675       N685   2.094       .  S
Cu676       N678   2.091       .  S
Cu676       N684   2.093       .  S
N677        C681   1.340       .  A
N677        N678   1.322       .  A
N678        C679   1.351       .  A
C679        C680   1.386       .  A
C679        H682   1.082       .  S
C680       C1405   1.438       .  S
C680        C681   1.374       .  A
C681        H683   1.082       .  S
N684        C688   1.348       .  A
N684        N685   1.327       .  A
N685        C686   1.348       .  A
C686        C687   1.381       .  A
C686        H689   1.082       .  S
C687       C1303   1.445       .  S
C687        C688   1.381       .  A
C688        H690   1.082       .  S
N691        C695   1.350       .  A
N691        N692   1.321       .  A
N691       Cu699   2.087       .  S
N692        C693   1.341       .  A
N692       Cu698   2.049       .  S
C693        C694   1.374       .  A
C693        H696   1.082       .  S
C694       C1384   1.437       .  S
C694        C695   1.385       .  A
C695        H697   1.082       .  S
Cu698       N701   2.048       .  S
Cu699       N709   2.088       .  S
Cu700       N702   2.094       .  S
Cu700       N708   2.096       .  S
N701        C705   1.341       .  A
N701        N702   1.322       .  A
N702        C703   1.350       .  A
C703        C704   1.386       .  A
C703        H706   1.082       .  S
C704       C1299   1.437       .  S
C704        C705   1.374       .  A
C705        H707   1.082       .  S
N708        C712   1.349       .  A
N708        N709   1.326       .  A
N709        C710   1.347       .  A
C710        C711   1.380       .  A
C710        H713   1.082       .  S
C711       C1304   1.445       .  S
C711        C712   1.383       .  A
C712        H714   1.082       .  S
N715        C719   1.349       .  A
N715        N716   1.322       .  A
N715       Cu723   2.086       .  S
N716        C717   1.340       .  A
N716       Cu722   2.050       .  S
C717        C718   1.374       .  A
C717        H720   1.082       .  S
C718       C1517   1.436       .  S
C718        C719   1.384       .  A
C719        H721   1.082       .  S
Cu722       N725   2.049       .  S
Cu723       N733   2.088       .  S
Cu724       N726   2.093       .  S
Cu724       N732   2.094       .  S
N725        C729   1.341       .  A
N725        N726   1.321       .  A
N726        C727   1.350       .  A
C727        C728   1.387       .  A
C727        H730   1.082       .  S
C728       C1301   1.438       .  S
C728        C729   1.374       .  A
C729        H731   1.082       .  S
N732        C736   1.348       .  A
N732        N733   1.326       .  A
N733        C734   1.347       .  A
C734        C735   1.380       .  A
C734        H737   1.082       .  S
C735       C1297   1.444       .  S
C735        C736   1.381       .  A
C736        H738   1.082       .  S
N739        C743   1.350       .  A
N739        N740   1.322       .  A
N739       Cu747   2.087       .  S
N740        C741   1.340       .  A
N740       Cu746   2.054       .  S
C741        C742   1.375       .  A
C741        H744   1.082       .  S
C742       C1428   1.438       .  S
C742        C743   1.385       .  A
C743        H745   1.082       .  S
Cu746       N749   2.054       .  S
Cu747       N757   2.088       .  S
Cu748       N750   2.091       .  S
Cu748       N756   2.092       .  S
N749        C753   1.343       .  A
N749        N750   1.322       .  A
N750        C751   1.349       .  A
C751        C752   1.385       .  A
C751        H754   1.082       .  S
C752       C1296   1.439       .  S
C752        C753   1.375       .  A
C753        H755   1.082       .  S
N756        C760   1.349       .  A
N756        N757   1.326       .  A
N757        C758   1.347       .  A
C758        C759   1.380       .  A
C758        H761   1.082       .  S
C759       C1298   1.444       .  S
C759        C760   1.382       .  A
C760        H762   1.082       .  S
N763        C767   1.349       .  A
N763        N764   1.322       .  A
N763       Cu771   2.084       .  S
N764        C765   1.340       .  A
N764       Cu770   2.052       .  S
C765        C766   1.374       .  A
C765        H768   1.082       .  S
C766       C1493   1.436       .  S
C766        C767   1.384       .  A
C767        H769   1.082       .  S
Cu770       N773   2.052       .  S
Cu771       N781   2.085       .  S
Cu772       N774   2.093       .  S
Cu772       N780   2.095       .  S
N773        C777   1.342       .  A
N773        N774   1.322       .  A
N774        C775   1.349       .  A
C775        C776   1.386       .  A
C775        H778   1.082       .  S
C776       C1295   1.438       .  S
C776        C777   1.375       .  A
C777        H779   1.082       .  S
N780        C784   1.349       .  A
N780        N781   1.326       .  A
N781        C782   1.347       .  A
C782        C783   1.380       .  A
C782        H785   1.082       .  S
C783       C1293   1.445       .  S
C783        C784   1.383       .  A
C784        H786   1.082       .  S
N787        C791   1.349       .  A
N787        N788   1.322       .  A
N787       Cu795   2.083       .  S
N788        C789   1.341       .  A
N788       Cu794   2.053       .  S
C789        C790   1.375       .  A
C789        H792   1.082       .  S
C790       C1512   1.435       .  S
C790        C791   1.384       .  A
C791        H793   1.082       .  S
Cu794       N797   2.053       .  S
Cu795       N805   2.085       .  S
Cu796       N798   2.094       .  S
Cu796       N804   2.095       .  S
N797        C801   1.343       .  A
N797        N798   1.322       .  A
N798        C799   1.349       .  A
C799        C800   1.386       .  A
C799        H802   1.082       .  S
C800       C1292   1.440       .  S
C800        C801   1.375       .  A
C801        H803   1.082       .  S
N804        C808   1.349       .  A
N804        N805   1.326       .  A
N805        C806   1.347       .  A
C806        C807   1.380       .  A
C806        H809   1.082       .  S
C807       C1294   1.445       .  S
C807        C808   1.382       .  A
C808        H810   1.082       .  S
N811        C815   1.350       .  A
N811        N812   1.321       .  A
N811       Cu819   2.091       .  S
N812        C813   1.340       .  A
N812       Cu818   2.049       .  S
C813        C814   1.374       .  A
C813        H816   1.082       .  S
C814       C1373   1.438       .  S
C814        C815   1.386       .  A
C815        H817   1.082       .  S
Cu818       N821   2.048       .  S
Cu819       N829   2.092       .  S
Cu820       N822   2.085       .  S
Cu820       N828   2.087       .  S
N821        C825   1.341       .  A
N821        N822   1.321       .  A
N822        C823   1.349       .  A
C823        C824   1.384       .  A
C823        H826   1.082       .  S
C824       C1287   1.434       .  S
C824        C825   1.373       .  A
C825        H827   1.082       .  S
N828        C832   1.348       .  A
N828        N829   1.326       .  A
N829        C830   1.347       .  A
C830        C831   1.381       .  A
C830        H833   1.082       .  S
C831       C1289   1.443       .  S
C831        C832   1.380       .  A
C832        H834   1.082       .  S
N835        C839   1.349       .  A
N835        N836   1.322       .  A
N835       Cu843   2.083       .  S
N836        C837   1.340       .  A
N836       Cu842   2.054   1_556  S
C837        C838   1.374       .  A
C837        H840   1.082   1_556  S
C838       C1469   1.435       .  S
C838        C839   1.384       .  A
C839        H841   1.082       .  S
Cu842       N845   2.054       .  S
Cu843       N853   2.085       .  S
Cu844       N846   2.092       .  S
Cu844       N852   2.093   1_554  S
N845        C849   1.343       .  A
N845        N846   1.322       .  A
N846        C847   1.349       .  A
C847        C848   1.386       .  A
C847        H850   1.082       .  S
C848       C1291   1.440       .  S
C848        C849   1.376       .  A
C849        H851   1.082       .  S
N852        C856   1.348       .  A
N852        N853   1.326       .  A
N853        C854   1.347       .  A
C854        C855   1.380       .  A
C854        H857   1.082       .  S
C855       C1290   1.443       .  S
C855        C856   1.381       .  A
C856        H858   1.082       .  S
N859        C863   1.349       .  A
N859        N860   1.321       .  A
N859       Cu867   2.085       .  S
N860        C861   1.341       .  A
N860       Cu866   2.051       .  S
C861        C862   1.375       .  A
C861        H864   1.082       .  S
C862       C1528   1.436       .  S
C862        C863   1.384       .  A
C863        H865   1.082       .  S
Cu866       N869   2.050       .  S
Cu867       N877   2.087       .  S
Cu868       N870   2.093       .  S
Cu868       N876   2.094       .  S
N869        C873   1.341       .  A
N869        N870   1.322       .  A
N870        C871   1.350       .  A
C871        C872   1.386       .  A
C871        H874   1.082       .  S
C872       C1300   1.437       .  S
C872        C873   1.374       .  A
C873        H875   1.082       .  S
N876        C880   1.349       .  A
N876        N877   1.326       .  A
N877        C878   1.347       .  A
C878        C879   1.380       .  A
C878        H881   1.082       .  S
C879       C1285   1.445       .  S
C879        C880   1.382       .  A
C880        H882   1.082       .  S
N883        C887   1.348       .  A
N883        N884   1.321       .  A
N883       Cu891   2.082       .  S
N884        C885   1.341       .  A
N884       Cu890   2.048       .  S
C885        C886   1.375       .  A
C885        H888   1.082       .  S
C886       C1404   1.435       .  S
C886        C887   1.383       .  A
C887        H889   1.082       .  S
Cu890       N893   2.046       .  S
Cu891       N901   2.084       .  S
Cu892       N894   2.095       .  S
Cu892       N900   2.096       .  S
N893        C897   1.341       .  A
N893        N894   1.322       .  A
N894        C895   1.350       .  A
C895        C896   1.387       .  A
C895        H898   1.082       .  S
C896       C1284   1.437       .  S
C896        C897   1.372       .  A
C897        H899   1.082       .  S
N900        C904   1.349       .  A
N900        N901   1.326       .  A
N901        C902   1.347       .  A
C902        C903   1.380       .  A
C902        H905   1.082       .  S
C903       C1286   1.444       .  S
C903        C904   1.382       .  A
C904        H906   1.082       .  S
N907        C911   1.349       .  A
N907        N908   1.321       .  A
N907       Cu915   2.081       .  S
N908        C909   1.340       .  A
N908       Cu914   2.045       .  S
C909        C910   1.374       .  A
C909        H912   1.082       .  S
C910       C1448   1.435       .  S
C910        C911   1.384       .  A
C911        H913   1.082       .  S
Cu914       N917   2.044       .  S
Cu915       N925   2.084       .  S
Cu916       N918   2.093       .  S
Cu916       N924   2.094       .  S
N917        C921   1.340       .  A
N917        N918   1.321       .  A
N918        C919   1.350       .  A
C919        C920   1.387       .  A
C919        H922   1.082       .  S
C920       C1283   1.437       .  S
C920        C921   1.372       .  A
C921        H923   1.082       .  S
N924        C928   1.348       .  A
N924        N925   1.327       .  A
N925        C926   1.346       .  A
C926        C927   1.379       .  A
C926        H929   1.082       .  S
C927       C1282   1.441       .  S
C927        C928   1.381       .  A
C928        H930   1.082       .  S
N931        C935   1.350       .  A
N931        N932   1.321       .  A
N931       Cu939   2.087       .  S
N932        C933   1.340       .  A
N932       Cu938   2.050   1_565  S
C933        C934   1.374       .  A
C933        H936   1.082       .  S
C934       C1277   1.437       .  S
C934        C935   1.385       .  A
C935        H937   1.082       .  S
Cu938       N941   2.049       .  S
Cu939       N949   2.088       .  S
Cu940       N942   2.084       .  S
Cu940       N948   2.086   1_545  S
N941        C945   1.342       .  A
N941        N942   1.321       .  A
N942        C943   1.348       .  A
C943        C944   1.384       .  A
C943        H946   1.082       .  S
C944       C1288   1.435       .  S
C944        C945   1.374       .  A
C945        H947   1.082       .  S
N948        C952   1.347       .  A
N948        N949   1.326       .  A
N949        C950   1.346       .  A
C950        C951   1.380       .  A
C950        H953   1.082       .  S
C951       C1281   1.441       .  S
C951        C952   1.380       .  A
C952        H954   1.082       .  S
C955        N956   1.358       .  A
C955        N960   1.357       .  A
C955       C1314   1.437       .  S
N956        C957   1.357       .  A
C957        N958   1.358       .  A
C957       C1273   1.437   1_556  S
N958        C959   1.357       .  A
C959        N960   1.358       .  A
C959       C1280   1.437   1_655  S
N961        C965   1.349       .  A
N961        N962   1.322       .  A
N961       Cu969   2.082       .  S
N962        C963   1.340       .  A
N962       Cu968   2.051       .  S
C963        C964   1.374       .  A
C963        H966   1.082       .  S
C964       C1429   1.435       .  S
C964        C965   1.383       .  A
C965        H967   1.082       .  S
Cu968       N971   2.050       .  S
Cu969       N979   2.085       .  S
Cu970       N972   2.091       .  S
Cu970       N978   2.092       .  S
N971        C975   1.342       .  A
N971        N972   1.322       .  A
N972        C973   1.349       .  A
C973        C974   1.386       .  A
C973        H976   1.082       .  S
C974       C1270   1.437       .  S
C974        C975   1.374       .  A
C975        H977   1.082       .  S
N978        C982   1.348       .  A
N978        N979   1.326       .  A
N979        C980   1.347       .  A
C980        C981   1.380       .  A
C980        H983   1.082       .  S
C981       C1271   1.444       .  S
C981        C982   1.381       .  A
C982        H984   1.082       .  S
N985        C989   1.350       .  A
N985        N986   1.321       .  A
N985       Cu993   2.086       .  S
N986        C987   1.340       .  A
N986       Cu992   2.051       .  S
C987        C988   1.374       .  A
C987        H990   1.082       .  S
C988       C1492   1.437       .  S
C988        C989   1.385       .  A
C989        H991   1.082       .  S
Cu992       N995   2.050       .  S
Cu993      N1003   2.088       .  S
Cu994       N996   2.095       .  S
Cu994      N1002   2.096       .  S
N995        C999   1.342       .  A
N995        N996   1.322       .  A
N996        C997   1.350       .  A
C997        C998   1.387       .  A
C997       H1000   1.082       .  S
C998       C1268   1.439       .  S
C998        C999   1.374       .  A
C999       H1001   1.082       .  S
N1002      C1006   1.349       .  A
N1002      N1003   1.327       .  A
N1003      C1004   1.347       .  A
C1004      C1005   1.380       .  A
C1004      H1007   1.082       .  S
C1005      C1272   1.444       .  S
C1005      C1006   1.382       .  A
C1006      H1008   1.082       .  S
N1009      C1013   1.349       .  A
N1009      N1010   1.321       .  A
N1009     Cu1017   2.081       .  S
N1010      C1011   1.340       .  A
N1010     Cu1016   2.048       .  S
C1011      C1012   1.374       .  A
C1011      H1014   1.082       .  S
C1012      C1521   1.434       .  S
C1012      C1013   1.384       .  A
C1013      H1015   1.082       .  S
Cu1016     N1019   2.048       .  S
Cu1017     N1027   2.083       .  S
Cu1018     N1020   2.094       .  S
Cu1018     N1026   2.096       .  S
N1019      C1023   1.342       .  A
N1019      N1020   1.322       .  A
N1020      C1021   1.349       .  A
C1021      C1022   1.386       .  A
C1021      H1024   1.082       .  S
C1022      C1269   1.437       .  S
C1022      C1023   1.374       .  A
C1023      H1025   1.082       .  S
N1026      C1030   1.349       .  A
N1026      N1027   1.326       .  A
N1027      C1028   1.346       .  A
C1028      C1029   1.379       .  A
C1028      H1031   1.082       .  S
C1029      C1266   1.444       .  S
C1029      C1030   1.383       .  A
C1030      H1032   1.082       .  S
N1033      C1037   1.350       .  A
N1033      N1034   1.322       .  A
N1033     Cu1041   2.090       .  S
N1034      C1035   1.341       .  A
N1034     Cu1040   2.051       .  S
C1035      C1036   1.375       .  A
C1035      H1038   1.082       .  S
C1036      C1380   1.439       .  S
C1036      C1037   1.386       .  A
C1037      H1039   1.082       .  S
Cu1040     N1043   2.051       .  S
Cu1041     N1051   2.092       .  S
Cu1042     N1044   2.088       .  S
Cu1042     N1050   2.089       .  S
N1043      C1047   1.341       .  A
N1043      N1044   1.322       .  A
N1044      C1045   1.349       .  A
C1045      C1046   1.385       .  A
C1045      H1048   1.082       .  S
C1046      C1263   1.437       .  S
C1046      C1047   1.374       .  A
C1047      H1049   1.082       .  S
N1050      C1054   1.348       .  A
N1050      N1051   1.326       .  A
N1051      C1052   1.348       .  A
C1052      C1053   1.381       .  A
C1052      H1055   1.082       .  S
C1053      C1265   1.444       .  S
C1053      C1054   1.381       .  A
C1054      H1056   1.082       .  S
N1057      C1061   1.350       .  A
N1057      N1058   1.322       .  A
N1057     Cu1065   2.095       .  S
N1058      C1059   1.342       .  A
N1058     Cu1064   2.050       .  S
C1059      C1060   1.375       .  A
C1059      H1062   1.082       .  S
C1060      C1267   1.439       .  S
C1060      C1061   1.386       .  A
C1061      H1063   1.082       .  S
Cu1064     N1067   2.051       .  S
Cu1065     N1075   2.096       .  S
Cu1066     N1068   2.090       .  S
Cu1066     N1074   2.092       .  S
N1067      C1071   1.340       .  A
N1067      N1068   1.322       .  A
N1068      C1069   1.350       .  A
C1069      C1070   1.385       .  A
C1069      H1072   1.082       .  S
C1070      C1536   1.436       .  S
C1070      C1071   1.374       .  A
C1071      H1073   1.082       .  S
N1074      C1078   1.348       .  A
N1074      N1075   1.326       .  A
N1075      C1076   1.349       .  A
C1076      C1077   1.382       .  A
C1076      H1079   1.082       .  S
C1077      C1262   1.447       .  S
C1077      C1078   1.382       .  A
C1078      H1080   1.082       .  S
N1081      C1085   1.351       .  A
N1081      N1082   1.321       .  A
N1081     Cu1089   2.092       .  S
N1082      C1083   1.340       .  A
N1082     Cu1088   2.047       .  S
C1083      C1084   1.374       .  A
C1083      H1086   1.082       .  S
C1084      C1340   1.438       .  S
C1084      C1085   1.387       .  A
C1085      H1087   1.082       .  S
Cu1088     N1091   2.047       .  S
Cu1089     N1099   2.095       .  S
Cu1090     N1092   2.098       .  S
Cu1090     N1098   2.100       .  S
N1091      C1095   1.341       .  A
N1091      N1092   1.321       .  A
N1092      C1093   1.351       .  A
C1093      C1094   1.388       .  A
C1093      H1096   1.082       .  S
C1094      C1259   1.440       .  S
C1094      C1095   1.374       .  A
C1095      H1097   1.082       .  S
N1098      C1102   1.349       .  A
N1098      N1099   1.327       .  A
N1099      C1100   1.348       .  A
C1100      C1101   1.381       .  A
C1100      H1103   1.082       .  S
C1101      C1261   1.447       .  S
C1101      C1102   1.383       .  A
C1102      H1104   1.082       .  S
N1105      C1109   1.349       .  A
N1105      N1106   1.322       .  A
N1105     Cu1113   2.086       .  S
N1106      C1107   1.341       .  A
N1106     Cu1112   2.050       .  S
C1107      C1108   1.375       .  A
C1107      H1110   1.082       .  S
C1108      C1484   1.436       .  S
C1108      C1109   1.384       .  A
C1109      H1111   1.082       .  S
Cu1112     N1115   2.049       .  S
Cu1113     N1123   2.089       .  S
Cu1114     N1116   2.093       .  S
Cu1114     N1122   2.095       .  S
N1115      C1119   1.341       .  A
N1115      N1116   1.322       .  A
N1116      C1117   1.349       .  A
C1117      C1118   1.386       .  A
C1117      H1120   1.082       .  S
C1118      C1264   1.437       .  S
C1118      C1119   1.374       .  A
C1119      H1121   1.082       .  S
N1122      C1126   1.349       .  A
N1122      N1123   1.326       .  A
N1123      C1124   1.348       .  A
C1124      C1125   1.381       .  A
C1124      H1127   1.082       .  S
C1125      C1258   1.446       .  S
C1125      C1126   1.382       .  A
C1126      H1128   1.082       .  S
N1129      C1133   1.351       .  A
N1129      N1130   1.321       .  A
N1129     Cu1137   2.089       .  S
N1130      C1131   1.340       .  A
N1130     Cu1136   2.047       .  S
C1131      C1132   1.374       .  A
C1131      H1134   1.082       .  S
C1132      C1508   1.437       .  S
C1132      C1133   1.386       .  A
C1133      H1135   1.082       .  S
Cu1136     N1139   2.047       .  S
Cu1137     N1147   2.091       .  S
Cu1138     N1140   2.100       .  S
Cu1138     N1146   2.102       .  S
N1139      C1143   1.342       .  A
N1139      N1140   1.322       .  A
N1140      C1141   1.351       .  A
C1141      C1142   1.388       .  A
C1141      H1144   1.082       .  S
C1142      C1256   1.440       .  S
C1142      C1143   1.374       .  A
C1143      H1145   1.082       .  S
N1146      C1150   1.350       .  A
N1146      N1147   1.327       .  A
N1147      C1148   1.347       .  A
C1148      C1149   1.380       .  A
C1148      H1151   1.082       .  S
C1149      C1257   1.447       .  S
C1149      C1150   1.383       .  A
C1150      H1152   1.082       .  S
N1153      C1157   1.351       .  A
N1153      N1154   1.321       .  A
N1153     Cu1161   2.094       .  S
N1154      C1155   1.340       .  A
N1154     Cu1160   2.044       .  S
C1155      C1156   1.374       .  A
C1155      H1158   1.082       .  S
C1156      C1464   1.439       .  S
C1156      C1157   1.387       .  A
C1157      H1159   1.082       .  S
Cu1160     N1163   2.042       .  S
Cu1161     N1171   2.096       .  S
Cu1162     N1164   2.095       .  S
Cu1162     N1170   2.097       .  S
N1163      C1167   1.340       .  A
N1163      N1164   1.321       .  A
N1164      C1165   1.350       .  A
C1165      C1166   1.387       .  A
C1165      H1168   1.082       .  S
C1166      C1251   1.437       .  S
C1166      C1167   1.372       .  A
C1167      H1169   1.082       .  S
N1170      C1174   1.349       .  A
N1170      N1171   1.327       .  A
N1171      C1172   1.348       .  A
C1172      C1173   1.381       .  A
C1172      H1175   1.082       .  S
C1173      C1253   1.446       .  S
C1173      C1174   1.382       .  A
C1174      H1176   1.082       .  S
N1177      C1181   1.349       .  A
N1177      N1178   1.322       .  A
N1177     Cu1185   2.083       .  S
N1178      C1179   1.341       .  A
N1178     Cu1184   2.053   1_565  S
C1179      C1180   1.375       .  A
C1179      H1182   1.082       .  S
C1180      C1400   1.435       .  S
C1180      C1181   1.383       .  A
C1181      H1183   1.082       .  S
Cu1184     N1187   2.053       .  S
Cu1185     N1195   2.085       .  S
Cu1186     N1188   2.097       .  S
Cu1186     N1194   2.098   1_545  S
N1187      C1191   1.342       .  A
N1187      N1188   1.322       .  A
N1188      C1189   1.350       .  A
C1189      C1190   1.387       .  A
C1189      H1192   1.082       .  S
C1190      C1255   1.440       .  S
C1190      C1191   1.375       .  A
C1191      H1193   1.082       .  S
N1194      C1198   1.349       .  A
N1194      N1195   1.326       .  A
N1195      C1196   1.347       .  A
C1196      C1197   1.380       .  A
C1196      H1199   1.082       .  S
C1197      C1254   1.446       .  S
C1197      C1198   1.383       .  A
C1198      H1200   1.082       .  S
N1201      C1205   1.350       .  A
N1201      N1202   1.322       .  A
N1201     Cu1209   2.097       .  S
N1202      C1203   1.342       .  A
N1202     Cu1208   2.052       .  S
C1203      C1204   1.374       .  A
C1203      H1206   1.082       .  S
C1204      C1260   1.440       .  S
C1204      C1205   1.387       .  A
C1205      H1207   1.082       .  S
Cu1208     N1211   2.053       .  S
Cu1209     N1219   2.099       .  S
Cu1210     N1212   2.085       .  S
Cu1210     N1218   2.088       .  S
N1211      C1215   1.341       .  A
N1211      N1212   1.321       .  A
N1212      C1213   1.349       .  A
C1213      C1214   1.384       .  A
C1213      H1216   1.082       .  S
C1214      C1412   1.437       .  S
C1214      C1215   1.375       .  A
C1215      H1217   1.082       .  S
N1218      C1222   1.347       .  A
N1218      N1219   1.326       .  A
N1219      C1220   1.349       .  A
C1220      C1221   1.383       .  A
C1220      H1223   1.082       .  S
C1221      C1250   1.446       .  S
C1221      C1222   1.380       .  A
C1222      H1224   1.082       .  S
N1225      C1229   1.350       .  A
N1225      N1226   1.321       .  A
N1225     Cu1233   2.091       .  S
N1226      C1227   1.340       .  A
N1226     Cu1232   2.046   1_655  S
C1227      C1228   1.374       .  A
C1227      H1230   1.082       .  S
C1228      C1276   1.437       .  S
C1228      C1229   1.386       .  A
C1229      H1231   1.082       .  S
Cu1232     N1235   2.044       .  S
Cu1233     N1243   2.093       .  S
Cu1234     N1236   2.094       .  S
Cu1234     N1242   2.096   1_455  S
N1235      C1239   1.340       .  A
N1235      N1236   1.322       .  A
N1236      C1237   1.350       .  A
C1237      C1238   1.387       .  A
C1237      H1240   1.082       .  S
C1238      C1252   1.437       .  S
C1238      C1239   1.372       .  A
C1239      H1241   1.082       .  S
N1242      C1246   1.349       .  A
N1242      N1243   1.327       .  A
N1243      C1244   1.348       .  A
C1244      C1245   1.381       .  A
C1244      H1247   1.082       .  S
C1245      C1249   1.446       .  S
C1245      C1246   1.382       .  A
C1246      H1248   1.082       .  S
C1249      C1250   1.211       .  T
C1251      C1252   1.206       .  T
C1253      C1254   1.211       .  T
C1255      C1256   1.208       .  T
C1257      C1258   1.212   1_554  T
C1259      C1260   1.208       .  T
C1261      C1262   1.212       .  T
C1263      C1264   1.206       .  T
C1265      C1266   1.210       .  T
C1267      C1268   1.207       .  T
C1269      C1270   1.206       .  T
C1271      C1272   1.210       .  T
C1273      C1274   1.206       .  T
C1274      C1275   1.413       .  S
C1275      C1276   1.206       .  T
C1277      C1278   1.206       .  T
C1278      C1279   1.413       .  S
C1279      C1280   1.206       .  T
C1281      C1282   1.208       .  T
C1283      C1284   1.206       .  T
C1285      C1286   1.210       .  T
C1287      C1288   1.204       .  T
C1289      C1290   1.210       .  T
C1291      C1292   1.207       .  T
C1293      C1294   1.210   1_655  T
C1295      C1296   1.207       .  T
C1297      C1298   1.210       .  T
C1299      C1300   1.206       .  T
C1301      C1302   1.207       .  T
C1303      C1304   1.211       .  T
C1305      C1306   1.210       .  T
C1307      C1308   1.208       .  T
C1309      C1310   1.211   1_545  T
C1311      C1312   1.206       .  T
C1312      C1313   1.412       .  S
C1313      C1314   1.206   1_545  T
C1315      C1316   1.205       .  T
C1317      C1318   1.209       .  T
C1319      C1320   1.206       .  T
C1321      C1322   1.210       .  T
C1323      C1324   1.207       .  T
C1325      C1326   1.211       .  T
C1327      C1328   1.206       .  T
C1329      C1330   1.208       .  T
C1331      C1332   1.210       .  T
C1333      C1334   1.206       .  T
C1334      C1335   1.413       .  S
C1335      C1336   1.206   1_565  T
C1337      C1338   1.207       .  T
C1338      C1339   1.414       .  S
C1339      C1340   1.207       .  T
C1341      C1342   1.206       .  T
C1342      C1343   1.412       .  S
C1343      C1344   1.206       .  T
C1345      C1346   1.210       .  T
C1347      C1348   1.205       .  T
C1349      C1350   1.211       .  T
C1351      C1352   1.206       .  T
C1353      C1354   1.210       .  T
C1355      C1356   1.208       .  T
C1357      C1358   1.211   1_655  T
C1359      C1360   1.207       .  T
C1361      C1362   1.210   1_556  T
C1363      C1364   1.206       .  T
C1365      C1366   1.207       .  T
C1367      C1368   1.210       .  T
C1369      C1370   1.207       .  T
C1370      C1371   1.413       .  S
C1371      C1372   1.206       .  T
C1373      C1374   1.207       .  T
C1374      C1375   1.414       .  S
C1375      C1376   1.207       .  T
C1377      C1378   1.207       .  T
C1378      C1379   1.414       .  S
C1379      C1380   1.207       .  T
C1381      C1382   1.207       .  T
C1382      C1383   1.413       .  S
C1383      C1384   1.206       .  T
C1385      C1386   1.207       .  T
C1386      C1387   1.414       .  S
C1387      C1388   1.207       .  T
C1389      C1390   1.207       .  T
C1390      C1391   1.413       .  S
C1391      C1392   1.206   1_565  T
C1393      C1394   1.206   1_565  T
C1394      C1395   1.412       .  S
C1395      C1396   1.206       .  T
C1397      C1398   1.205       .  T
C1398      C1399   1.411   1_556  S
C1399      C1400   1.205       .  T
C1401      C1402   1.205       .  T
C1402      C1403   1.410       .  S
C1403      C1404   1.204       .  T
C1405      C1406   1.206       .  T
C1406      C1407   1.413       .  S
C1407      C1408   1.206       .  T
C1409      C1410   1.206       .  T
C1410      C1411   1.412       .  S
C1411      C1412   1.206       .  T
C1413      C1414   1.205       .  T
C1414      C1415   1.411       .  S
C1415      C1416   1.205       .  T
C1417      C1418   1.206       .  T
C1418      C1419   1.413       .  S
C1419      C1420   1.207       .  T
C1421      C1422   1.207       .  T
C1422      C1423   1.414       .  S
C1423      C1424   1.207       .  T
C1425      C1426   1.207       .  T
C1426      C1427   1.413       .  S
C1427      C1428   1.206       .  T
C1429      C1430   1.204       .  T
C1430      C1431   1.410       .  S
C1431      C1432   1.205       .  T
C1433      C1434   1.205       .  T
C1434      C1435   1.411       .  S
C1435      C1436   1.205       .  T
C1437      C1438   1.205       .  T
C1438      C1439   1.410       .  S
C1439      C1440   1.205       .  T
C1441      C1442   1.205       .  T
C1442      C1443   1.410       .  S
C1443      C1444   1.204       .  T
C1445      C1446   1.205       .  T
C1446      C1447   1.410       .  S
C1447      C1448   1.204       .  T
C1449      C1450   1.204       .  T
C1450      C1451   1.409       .  S
C1451      C1452   1.203       .  T
C1453      C1454   1.207       .  T
C1454      C1455   1.414       .  S
C1455      C1456   1.207       .  T
C1457      C1458   1.206       .  T
C1458      C1459   1.413       .  S
C1459      C1460   1.206       .  T
C1461      C1462   1.208       .  T
C1462      C1463   1.415       .  S
C1463      C1464   1.207       .  T
C1465      C1466   1.206       .  T
C1466      C1467   1.412       .  S
C1467      C1468   1.205       .  T
C1469      C1470   1.205   1_455  T
C1470      C1471   1.411       .  S
C1471      C1472   1.205       .  T
C1473      C1474   1.205       .  T
C1474      C1475   1.411       .  S
C1475      C1476   1.205       .  T
C1477      C1478   1.205       .  T
C1478      C1479   1.411       .  S
C1479      C1480   1.205       .  T
C1481      C1482   1.205       .  T
C1482      C1483   1.411       .  S
C1483      C1484   1.205       .  T
C1485      C1486   1.206       .  T
C1486      C1487   1.412       .  S
C1487      C1488   1.205   1_556  T
C1489      C1490   1.206       .  T
C1490      C1491   1.413       .  S
C1491      C1492   1.206       .  T
C1493      C1494   1.205       .  T
C1494      C1495   1.412       .  S
C1495      C1496   1.206       .  T
C1497      C1498   1.206   1_455  T
C1498      C1499   1.413       .  S
C1499      C1500   1.206       .  T
C1501      C1502   1.206       .  T
C1502      C1503   1.412       .  S
C1503      C1504   1.205       .  T
C1505      C1506   1.206       .  T
C1506      C1507   1.413       .  S
C1507      C1508   1.206       .  T
C1509      C1510   1.205       .  T
C1510      C1511   1.411       .  S
C1511      C1512   1.205       .  T
C1513      C1514   1.205       .  T
C1514      C1515   1.410       .  S
C1515      C1516   1.204       .  T
C1517      C1518   1.205       .  T
C1518      C1519   1.411       .  S
C1519      C1520   1.205       .  T
C1521      C1522   1.204       .  T
C1522      C1523   1.410       .  S
C1523      C1524   1.205       .  T
C1525      C1526   1.206       .  T
C1526      C1527   1.412       .  S
C1527      C1528   1.206       .  T
C1529      C1530   1.206       .  T
C1530      C1531   1.413       .  S
C1531      C1532   1.206       .  T
C1533      C1534   1.206       .  T
C1534      C1535   1.412       .  S
C1535      C1536   1.206       .  T
