geometry optimzed in LAMMPS
_audit_creation_date              2020-11-30 
_audit_creation_method            'lammps2cif' 
_symmetry_space_group_name_H-M    'P1' 
_symmetry_Int_Tables_number       1 
_symmetry_cell_setting            triclinic 
loop_ 
_symmetry_equiv_pos_as_xyz 
  x,y,z 
_cell_length_a                    27.5651582 
_cell_length_b                    27.53667501347392 
_cell_length_c                    27.533569121650046 
_cell_angle_alpha                 90.2795676714668 
_cell_angle_beta                  89.88915106845968 
_cell_angle_gamma                 89.89031998927182 
loop_ 
_atom_site_label 
_atom_site_type_symbol 
_atom_site_fract_x 
_atom_site_fract_y 
_atom_site_fract_z 
_atom_site_charge 
O1          O  0.52471254  0.37087136  0.07389249    -0.73200
O2          O  0.51212539  0.42385501  0.13682763    -0.52100
C3          C  0.52080708  0.38104795  0.11941364     0.80500
O4          O  0.63873988  0.52811979  0.91797108    -0.57800
O5          O  0.58315123  0.51766798  0.85726254    -0.50900
C6          C  0.62674858  0.52492277  0.87290350     0.72500
O7          O  0.63796782  0.52100688  0.08059603    -0.72400
O8          O  0.58223916  0.50735608  0.14057332    -0.52900
C9          C  0.62588121  0.51547222  0.12533083     0.78500
O10         O  0.52047143  0.37675274  0.91180685    -0.57500
O11         O  0.50692725  0.43494420  0.85439493    -0.50600
C12         C  0.51460669  0.39067034  0.86772063     0.75100
Zr13       Zr  0.51615807  0.40798090  0.99426919     2.54700
O14         O  0.58369806  0.35103814  0.98950146    -0.78100
O15         O  0.45515670  0.34421846  0.99395045    -0.91500
Zr16       Zr  0.60467477  0.51850991  0.99910409     2.64700
O17         O  0.66809260  0.45684717  0.99781070    -0.96500
O18         O  0.66316472  0.58469065  0.00151150    -0.78500
O19         O  0.56123207  0.46054949  0.04508576    -0.81900
O20         O  0.56144794  0.46448836  0.94806619    -2.16600
O21         O  0.37148345  0.50398862  0.91568551    -0.65300
O22         O  0.42862217  0.50791626  0.85560648    -0.49800
C23         C  0.38432711  0.50689523  0.87088213     0.73500
O24         O  0.47335035  0.63433955  0.08461415    -0.58200
O25         O  0.49305484  0.57848549  0.14255795    -0.50200
C26         C  0.47815524  0.62075542  0.12891329     0.75300
O27         O  0.49894708  0.64501973  0.92450723    -0.69600
O28         O  0.50007109  0.59127281  0.86098505    -0.48300
C29         C  0.49973976  0.63474633  0.87894504     0.76700
O30         O  0.37047098  0.50268818  0.07720770    -0.64900
O31         O  0.42584243  0.49759362  0.13866510    -0.52100
C32         C  0.38199601  0.50093221  0.12230446     0.75100
Zr33       Zr  0.40558458  0.49647333  0.99682921     2.77500
O34         O  0.33298819  0.54695323  0.00122302    -0.95700
O35         O  0.35949681  0.42115873  0.99476709    -0.76500
Zr36       Zr  0.49425495  0.60676439  0.00344696     2.70100
O37         O  0.42968682  0.66699270  0.99756784    -0.77700
O38         O  0.55589022  0.66793315  0.01884931    -0.96800
Zr39       Zr  0.50464071  0.50291483  0.09613403     2.21500
Zr40       Zr  0.50529091  0.51145076  0.90086240     2.11100
O41         O  0.44917393  0.55501832  0.95176834    -2.45500
O42         O  0.44940312  0.54937398  0.04808051    -0.77500
O43         O  0.46045162  0.45309737  0.94681508    -0.69700
O44         O  0.54995981  0.56160485  0.05029641    -2.30700
O45         O  0.45942068  0.44913447  0.04446750    -2.26900
O46         O  0.55000573  0.56543670  0.95261360    -0.71500
H47         H  0.58398391  0.44718855  0.92720685     0.80500
H48         H  0.56729653  0.58335873  0.07169726     0.81600
H49         H  0.42741804  0.57475677  0.93266454     0.83800
H50         H  0.44115344  0.42607280  0.06358989     0.81400
H51         H  0.64503983  0.61328340  0.98954975     0.44500
H52         H  0.57105034  0.67373525  0.98678634     0.43400
H53         H  0.39954539  0.64769354  0.99485125     0.43100
H54         H  0.33952057  0.57445897  0.97917157     0.41100
H55         H  0.33070436  0.42774969  0.01534144     0.44200
H56         H  0.47384148  0.31381956  0.98913503     0.39000
H57         H  0.61298870  0.37152323  0.99267395     0.45100
H58         H  0.69876932  0.47545603  0.99924457     0.41500
H59         H  0.30731827  0.52787278  0.98480608     0.46400
H60         H  0.43735743  0.34870618  0.96309081     0.45200
H61         H  0.66583981  0.44082230  0.02984551     0.45300
H62         H  0.53726420  0.69796087  0.02582516     0.45600
C63         C  0.21956257  0.48301813  0.27707562     0.05200
C64         C  0.26880232  0.48152996  0.26289524    -0.11000
C65         C  0.28126275  0.47273275  0.21388160     0.02700
C66         C  0.24420894  0.46165321  0.18028818    -0.09500
C67         C  0.19544575  0.46226951  0.19415860     0.05200
C68         C  0.18330175  0.47305915  0.24229822    -0.08900
H69         H  0.29688111  0.48995233  0.28906995     0.10800
H70         H  0.25333127  0.45392725  0.14269960     0.08300
H71         H  0.14535396  0.47385761  0.25274667     0.08200
C72         C  0.79077003  0.48745530  0.27669637     0.05200
C73         C  0.74110900  0.49166858  0.26448455    -0.11000
C74         C  0.72621379  0.48573594  0.21568672     0.02700
C75         C  0.76104622  0.47309487  0.18023774    -0.09500
C76         C  0.80966901  0.46702318  0.19241332     0.05200
C77         C  0.82435882  0.47377025  0.24037239    -0.08900
H78         H  0.71487404  0.50193144  0.29203006     0.10800
H79         H  0.75023836  0.46807113  0.14269437     0.08300
H80         H  0.86238940  0.46911340  0.24929287     0.08200
C81         C  0.28276123  0.47385270  0.78388918     0.05200
C82         C  0.24669460  0.46780242  0.81977630    -0.11000
C83         C  0.19804161  0.46230320  0.80709251     0.02700
C84         C  0.18481356  0.46282202  0.75824912    -0.09500
C85         C  0.21975534  0.46964960  0.72139630     0.05200
C86         C  0.26920197  0.47338896  0.73439002    -0.08900
H87         H  0.25654375  0.46737561  0.85788966     0.10800
H88         H  0.14685628  0.45848664  0.74892186     0.08300
H89         H  0.29647977  0.47836063  0.70649728     0.08200
C90         C  0.72659101  0.49271647  0.78208071     0.05200
C91         C  0.76230984  0.48158084  0.81697470    -0.11000
C92         C  0.81054601  0.47382822  0.80349079     0.02700
C93         C  0.82370840  0.47730221  0.75466774    -0.09500
C94         C  0.78916861  0.48887265  0.71865101     0.05200
C95         C  0.74001745  0.49491165  0.73247991    -0.08900
H96         H  0.75247659  0.47878589  0.85500982     0.10800
H97         H  0.86125578  0.47086770  0.74471794     0.08300
H98         H  0.71295196  0.50324838  0.70527872     0.08200
N99         N  0.00142015  0.44892987  0.07391056    -0.34500
N100        N  0.92670833  0.44849294  0.99750471    -0.55100
N101        N  0.00301248  0.44734572  0.92359684    -0.34500
N102        N  0.07764642  0.44935567  0.00027330    -0.55100
C103        C  0.96123599  0.44733593  0.10218325     0.29000
C104        C  0.04065660  0.44743335  0.10351641     0.29000
C105        C  0.96376514  0.45565864  0.89503531     0.29000
C106        C  0.04319335  0.45584830  0.89643003     0.29000
C107        C  0.89713451  0.44728325  0.03677734     0.37700
C108        C  0.89794335  0.44799251  0.95771706     0.37700
C109        C  0.10640184  0.44846305  0.04009095     0.37700
C110        C  0.10730831  0.44941354  0.96111162     0.37700
C111        C  0.97519596  0.44512912  0.15058998    -0.19800
C112        C  0.02507401  0.44508041  0.15139821    -0.19800
C113        C  0.97937744  0.46820875  0.84882125    -0.19800
C114        C  0.02924034  0.46826263  0.84968090    -0.19800
C115        C  0.84913079  0.44579055  0.02172782    -0.20900
C116        C  0.84964513  0.44617191  0.97182236    -0.20900
C117        C  0.15473119  0.44792581  0.02602576    -0.20900
C118        C  0.15531325  0.44857186  0.97617751    -0.20900
C119        C  0.91228331  0.44809333  0.08607297    -0.16200
C120        C  0.09014710  0.44859129  0.08903087    -0.16200
C121        C  0.09222683  0.45276671  0.91203763    -0.16200
C122        C  0.91418718  0.45249991  0.90902752    -0.16200
H123        H  0.95191077  0.44355351  0.18224488     0.16700
H124        H  0.04729093  0.44348855  0.18372928     0.16700
H125        H  0.95717509  0.47714538  0.81772009     0.16700
H126        H  0.05255969  0.47727576  0.81936882     0.16700
H127        H  0.81697472  0.44480110  0.04433057     0.15000
H128        H  0.81797263  0.44600900  0.94863714     0.15000
H129        H  0.18638146  0.44736336  0.04922656     0.15000
H130        H  0.18753100  0.44906044  0.95365165     0.15000
H131        H  0.00181805  0.45306477  0.03674724     0.28200
H132        H  0.00258932  0.43290748  0.95826338     0.28200
O133        O  0.08963689  0.53387568  0.36434789    -0.73200
O134        O  0.14851494  0.51535084  0.41963158    -0.52100
C135        C  0.13394308  0.52582496  0.37631730     0.80500
O136        O  0.92386597  0.63620989  0.52968121    -0.57800
O137        O  0.86470568  0.58280524  0.50668904    -0.50900
C138        C  0.87927766  0.62461761  0.52215736     0.72500
O139        O  0.08775045  0.63593811  0.53083616    -0.72400
O140        O  0.14830391  0.58237247  0.51129785    -0.52900
C141        C  0.13271863  0.62411826  0.52596578     0.78500
O142        O  0.92820798  0.53092060  0.36225247    -0.57500
O143        O  0.86761477  0.51460813  0.41651929    -0.50600
C144        C  0.88353455  0.52356402  0.37333141     0.75100
Zr145      Zr  0.00845670  0.52957799  0.39816799     2.54700
O146        O  0.00765031  0.60734338  0.35658908    -0.78100
O147        O  0.01197509  0.48366731  0.32229536    -0.91500
Zr148      Zr  0.00591210  0.60499008  0.51786886     2.64700
O149        O  0.00485732  0.67755023  0.46758015    -0.96500
O150        O  0.00551889  0.65253439  0.59265826    -0.78500
O151        O  0.05639454  0.56861166  0.45793794    -0.81900
O152        O  0.95821234  0.56797245  0.45664624    -2.16600
O153        O  0.92684545  0.37846222  0.45597221    -0.65300
O154        O  0.86613842  0.43017288  0.47950139    -0.49800
C155        C  0.88186832  0.38933746  0.46232355     0.73500
O156        O  0.08569953  0.49142791  0.62947653    -0.58200
O157        O  0.14741751  0.49843003  0.57444919    -0.50200
C158        C  0.13079630  0.49555669  0.61823942     0.75300
O159        O  0.92606434  0.50425977  0.62684640    -0.69600
O160        O  0.86429041  0.50310871  0.57200178    -0.48300
C161        C  0.88090598  0.50675333  0.61568562     0.76700
O162        O  0.08950735  0.37664884  0.46410391    -0.64900
O163        O  0.14882590  0.43044506  0.48557432    -0.52100
C164        C  0.13413215  0.38824100  0.47135681     0.75100
Zr165      Zr  0.00763227  0.40891224  0.47397457     2.77500
O166        O  0.00712369  0.33869365  0.52732438    -0.95700
O167        O  0.01016580  0.35782750  0.40162747    -0.76500
Zr168      Zr  0.00542763  0.48385945  0.59337878     2.70100
O169        O  0.99870489  0.40086324  0.62262239    -0.77700
O170        O  0.00836829  0.50156504  0.68022723    -0.96800
Zr171      Zr  0.10404397  0.50681711  0.49685485     2.21500
Zr172      Zr  0.90955382  0.50658284  0.49480782     2.11100
O173        O  0.95684725  0.44466328  0.53425041    -2.45500
O174        O  0.05596472  0.44534671  0.53516563    -0.77500
O175        O  0.96030326  0.46884441  0.43487111    -0.69700
O176        O  0.05312607  0.54522190  0.55675920    -2.30700
O177        O  0.05570266  0.46847747  0.43553103    -2.26900
O178        O  0.95818441  0.54488626  0.55590377    -0.71500
H179        H  0.93816135  0.59186601  0.44103511     0.80500
H180        H  0.07194250  0.56203329  0.58100718     0.81600
H181        H  0.93614573  0.42072896  0.54927734     0.83800
H182        H  0.07582900  0.45269113  0.41130437     0.81400
H183        H  0.98513225  0.63357737  0.61532052     0.44500
H184        H  0.99465467  0.53462475  0.68394052     0.43400
H185        H  0.03028139  0.39440099  0.63844381     0.43100
H186        H  0.97237398  0.33102419  0.53211952     0.41100
H187        H  0.02846077  0.37710258  0.37750208     0.44200
H188        H  0.99729373  0.50522972  0.29765774     0.39000
H189        H  0.02918484  0.62837482  0.37624120     0.45100
H190        H  0.99734368  0.70436960  0.49049524     0.41500
H191        H  0.01965412  0.31173774  0.50690560     0.46400
H192        H  0.98822094  0.45706816  0.32644137     0.45200
H193        H  0.03915820  0.68285770  0.45832831     0.45300
H194        H  0.98423732  0.47975805  0.69547461     0.45600
C195        C  0.49014197  0.79625961  0.27030604     0.05200
C196        C  0.49627550  0.74671486  0.25823438    -0.11000
C197        C  0.48860910  0.73046631  0.21015136     0.02700
C198        C  0.47732494  0.76457258  0.17389167    -0.09500
C199        C  0.47341722  0.81383495  0.18505762     0.05200
C200        C  0.47952087  0.82953239  0.23292354    -0.08900
H201        H  0.50585052  0.72087927  0.28617762     0.10800
H202        H  0.47325083  0.75295553  0.13642331     0.08300
H203        H  0.47740992  0.86811412  0.24065319     0.08200
C204        C  0.49547423  0.22102432  0.27904516     0.05200
C205        C  0.50283054  0.26947774  0.26371753    -0.11000
C206        C  0.49774066  0.28172584  0.21409091     0.02700
C207        C  0.48390346  0.24524969  0.18079492    -0.09500
C208        C  0.47788811  0.19733815  0.19543979     0.05200
C209        C  0.48397388  0.18525054  0.24408284    -0.08900
H210        H  0.51277523  0.29713616  0.28995186     0.10800
H211        H  0.47803390  0.25399226  0.14290788     0.08300
H212        H  0.48056032  0.14749397  0.25454440     0.08200
C213        C  0.47531481  0.29055634  0.78296313     0.05200
C214        C  0.48214566  0.27349997  0.73491633    -0.11000
C215        C  0.47884652  0.22326385  0.72455477     0.02700
C216        C  0.46595543  0.19121470  0.76223758    -0.09500
C217        C  0.45894004  0.20789340  0.80961076     0.05200
C218        C  0.46326253  0.25735811  0.81983423    -0.08900
H219        H  0.49232777  0.29862587  0.70653574     0.10800
H220        H  0.46198594  0.15270454  0.75494632     0.08300
H221        H  0.45852833  0.27002944  0.85691440     0.08200
C222        C  0.47394367  0.73334423  0.78327098     0.05200
C223        C  0.46088077  0.77162595  0.81504042    -0.11000
C224        C  0.45884817  0.81955169  0.79896814     0.02700
C225        C  0.46815008  0.82971410  0.75023407    -0.09500
C226        C  0.47978530  0.79222352  0.71712772     0.05200
C227        C  0.48174356  0.74373686  0.73363339    -0.08900
H228        H  0.45324388  0.76436187  0.85295056     0.10800
H229        H  0.46693054  0.86709552  0.73804593     0.08300
H230        H  0.49158198  0.71481716  0.70866891     0.08200
N231        N  0.45002113  0.00667523  0.07224388    -0.34500
N232        N  0.44969382  0.93508669  0.99290740    -0.55100
N233        N  0.44252682  0.01337679  0.92216579    -0.34500
N234        N  0.44911480  0.08489277  0.00117311    -0.55100
C235        C  0.46065457  0.96582083  0.09722591     0.29000
C236        C  0.46046480  0.04494135  0.10149951     0.29000
C237        C  0.44850751  0.97512165  0.89152661     0.29000
C238        C  0.44852190  0.05447077  0.89597416     0.29000
C239        C  0.44833011  0.90425686  0.03102246     0.37700
C240        C  0.44450025  0.90767002  0.95229494     0.37700
C241        C  0.44678080  0.11204601  0.04221495     0.37700
C242        C  0.44280344  0.11573222  0.96359631     0.37700
C243        C  0.47678051  0.97831974  0.14336899    -0.19800
C244        C  0.47670877  0.02813509  0.14603207    -0.19800
C245        C  0.45704899  0.99220938  0.84496326    -0.19800
C246        C  0.45712881  0.04210451  0.84776399    -0.19800
C247        C  0.44278384  0.85694690  0.01449745    -0.20900
C248        C  0.44048032  0.85907794  0.96474918    -0.20900
C249        C  0.43932663  0.16042650  0.03062117    -0.20900
C250        C  0.43683813  0.16276138  0.98091614    -0.20900
C251        C  0.45540015  0.91749642  0.08025591    -0.16200
C252        C  0.45485066  0.09459691  0.08974535    -0.16200
C253        C  0.44534390  0.10285269  0.91380397    -0.16200
C254        C  0.44590380  0.92524212  0.90399743    -0.16200
H255        H  0.48793781  0.95408904  0.17212053     0.16700
H256        H  0.48773593  0.04951437  0.17719485     0.16700
H257        H  0.46298773  0.97096830  0.81229584     0.16700
H258        H  0.46304862  0.06647103  0.81760456     0.16700
H259        H  0.44135502  0.82416729  0.03599136     0.15000
H260        H  0.43678862  0.82823700  0.94051837     0.15000
H261        H  0.43671643  0.19101229  0.05534446     0.15000
H262        H  0.43183255  0.19550616  0.95990820     0.15000
H263        H  0.43255850  0.00818046  0.03898169     0.28200
H264        H  0.43117975  0.01166005  0.95795548     0.28200
C265        C  0.22256440  0.72713529  0.51479692     0.05200
C266        C  0.27199660  0.74067588  0.51281818    -0.11000
C267        C  0.28484365  0.79036784  0.51211259     0.02700
C268        C  0.24794514  0.82573935  0.51491251    -0.09500
C269        C  0.19936760  0.81252043  0.51524133     0.05200
C270        C  0.18671398  0.76372584  0.51464981    -0.08900
H271        H  0.29996561  0.71301855  0.51147041     0.10800
H272        H  0.25695391  0.86403784  0.51630631     0.08300
H273        H  0.14855137  0.75433350  0.51327896     0.08200
C274        C  0.72934428  0.22191608  0.47534087     0.05200
C275        C  0.76576054  0.18612074  0.47075464    -0.11000
C276        C  0.81458150  0.19881287  0.46852237     0.02700
C277        C  0.82769320  0.24760843  0.46876413    -0.09500
C278        C  0.79229430  0.28463498  0.47114098     0.05200
C279        C  0.74282517  0.27147391  0.47506076    -0.08900
H280        H  0.75616969  0.14795649  0.46966777     0.10800
H281        H  0.86596210  0.25660296  0.46861143     0.08300
H282        H  0.71527298  0.29938818  0.47846557     0.08200
C283        C  0.28502296  0.22115398  0.50398141     0.05200
C284        C  0.27167310  0.27072224  0.50040172    -0.11000
C285        C  0.22267347  0.28383117  0.49197806     0.02700
C286        C  0.18770726  0.24675769  0.48775239    -0.09500
C287        C  0.20087232  0.19806610  0.49060803     0.05200
C288        C  0.24903674  0.18535098  0.49839963    -0.08900
H289        H  0.29899380  0.29868248  0.50424098     0.10800
H290        H  0.14964025  0.25563550  0.48338590     0.08300
H291        H  0.25852368  0.14713182  0.49946174     0.08200
C292        C  0.79081430  0.72824210  0.50260249     0.05200
C293        C  0.82675160  0.76458619  0.50164341    -0.11000
C294        C  0.81417713  0.81349344  0.49992512     0.02700
C295        C  0.76564168  0.82693020  0.49842941    -0.09500
C296        C  0.72867978  0.79169235  0.49711081     0.05200
C297        C  0.74142373  0.74200629  0.49987306    -0.08900
H298        H  0.86487611  0.75480217  0.50163874     0.10800
H299        H  0.75675032  0.86531148  0.49834272     0.08300
H300        H  0.71338431  0.71450325  0.49970596     0.08200
N301        N  0.00742159  0.93098993  0.49536069    -0.34500
N302        N  0.08246878  0.00544591  0.49470169    -0.55100
N303        N  0.00844682  0.07980770  0.47754665    -0.34500
N304        N  0.93324491  0.00571129  0.48251312    -0.55100
C305        C  0.04613777  0.90366365  0.50805307     0.29000
C306        C  0.96724595  0.90382270  0.50238041     0.29000
C307        C  0.04766282  0.10829916  0.48511792     0.29000
C308        C  0.96863363  0.10861783  0.47984644     0.29000
C309        C  0.11126657  0.96566138  0.49575015     0.37700
C310        C  0.11182428  0.04377181  0.48634131     0.37700
C311        C  0.90440681  0.96606724  0.48085681     0.37700
C312        C  0.90486361  0.04437822  0.47208242     0.37700
C313        C  0.03044046  0.85806072  0.52242599    -0.19800
C314        C  0.98071556  0.85816480  0.51888780    -0.19800
C315        C  0.03268623  0.15612468  0.49115463    -0.19800
C316        C  0.98289993  0.15632180  0.48784759    -0.19800
C317        C  0.15929334  0.97890294  0.48879396    -0.20900
C318        C  0.15964676  0.02833422  0.48282435    -0.20900
C319        C  0.85733339  0.97968049  0.46944635    -0.20900
C320        C  0.85761986  0.02919600  0.46391749    -0.20900
C321        C  0.09531767  0.91778474  0.50478476    -0.16200
C322        C  0.91895083  0.91822392  0.49260795    -0.16200
C323        C  0.91994268  0.09346812  0.47341466    -0.16200
C324        C  0.09665918  0.09280082  0.48478893    -0.16200
H325        H  0.05250159  0.82767422  0.53395405     0.16700
H326        H  0.95723069  0.82784505  0.52720877     0.16700
H327        H  0.05525378  0.18770736  0.49722117     0.16700
H328        H  0.95987859  0.18808935  0.49089730     0.16700
H329        H  0.19085400  0.95544633  0.48827188     0.15000
H330        H  0.19154951  0.05041092  0.47692010     0.15000
H331        H  0.82581176  0.95649244  0.46636800     0.15000
H332        H  0.82635766  0.05154907  0.45579130     0.15000
H333        H  0.00869025  0.96435952  0.47838146     0.28200
H334        H  0.00926971  0.04378088  0.46665757     0.28200
O335        O  0.37349159  0.92554292  0.49567038    -0.73200
O336        O  0.43035184  0.86510607  0.49793105    -0.52100
C337        C  0.38650271  0.88068733  0.49330275     0.80500
O338        O  0.48205286  0.09205935  0.37244260    -0.57800
O339        O  0.49658873  0.15003198  0.43021509    -0.50900
C340        C  0.48561227  0.13637436  0.38669745     0.72500
O341        O  0.47907428  0.92988706  0.36808200    -0.72400
O342        O  0.49649690  0.86770386  0.41982122    -0.52900
C343        C  0.48342399  0.88458764  0.37818752     0.78500
O344        O  0.37430799  0.08623012  0.53212180    -0.57500
O345        O  0.42876327  0.14683486  0.51699641    -0.50600
C346        C  0.38618862  0.13127710  0.52855449     0.75100
Zr347      Zr  0.40647910  0.00516460  0.51569109     2.54700
O348        O  0.33339679  0.01726914  0.46770356    -0.78100
O349        O  0.35779497  0.98758777  0.58748706    -0.91500
Zr350      Zr  0.49337356  0.01010857  0.40223906     2.64700
O351        O  0.42976730  0.00786214  0.34097390    -0.96500
O352        O  0.55405261  0.01189272  0.33791897    -0.78500
O353        O  0.45008988  0.96033565  0.45670833    -0.81900
O354        O  0.44802642  0.05573378  0.46002049    -2.16600
O355        O  0.51967946  0.08234189  0.63877809    -0.65300
O356        O  0.50711078  0.14406158  0.58499869    -0.49800
C357        C  0.51342373  0.12737991  0.62829719     0.73500
O358        O  0.63949869  0.92700110  0.47648114    -0.58200
O359        O  0.58386952  0.86642708  0.48701324    -0.50200
C360        C  0.62701488  0.88206599  0.47811295     0.75300
O361        O  0.64015169  0.08870933  0.49635962    -0.69600
O362        O  0.58249765  0.14826316  0.50277554    -0.48300
C363        C  0.62693178  0.13331083  0.50102490     0.76700
O364        O  0.52611663  0.92048933  0.63230200    -0.64900
O365        O  0.51281698  0.86287192  0.57384353    -0.52100
C366        C  0.52099685  0.87630352  0.61812596     0.75100
Zr367      Zr  0.51969532  0.00236002  0.60115259     2.77500
O368        O  0.59177881  0.00112296  0.65224102    -0.95700
O369        O  0.46492611  0.99865054  0.67047141    -0.76500
Zr370      Zr  0.60582697  0.00780954  0.48806291     2.70100
O371        O  0.67575834  0.00134944  0.54150374    -0.77700
O372        O  0.65715367  0.01569794  0.41645051    -0.96800
Zr373      Zr  0.50703230  0.90968034  0.49801093     2.21500
Zr374      Zr  0.50546699  0.10319907  0.50546386     2.11100
O375        O  0.56283545  0.05322108  0.54752693    -2.45500
O376        O  0.56440316  0.95665207  0.54333332    -0.77500
O377        O  0.46246939  0.05190576  0.56081349    -0.69700
O378        O  0.55057092  0.96037789  0.44213275    -2.30700
O379        O  0.46226210  0.95515808  0.55766462    -2.26900
O380        O  0.55021464  0.05787389  0.44572265    -0.71500
H381        H  0.42471590  0.07624085  0.44395243     0.80500
H382        H  0.56760071  0.94101917  0.41816776     0.81600
H383        H  0.58474286  0.07276680  0.56661512     0.83800
H384        H  0.44475179  0.93377073  0.57915780     0.81400
H385        H  0.56998070  0.04389594  0.34156912     0.44500
H386        H  0.64464365  0.99113192  0.39330264     0.43400
H387        H  0.66866527  0.97304286  0.56237075     0.43100
H388        H  0.61132811  0.02925450  0.64158317     0.41100
H389        H  0.43415153  0.98595753  0.65703880     0.44200
H390        H  0.32645884  0.97579856  0.57448044     0.39000
H391        H  0.34260340  0.00667325  0.43452189     0.45100
H392        H  0.40612820  0.03304237  0.35120991     0.41500
H393        H  0.57987354  0.01033170  0.68497445     0.46400
H394        H  0.35012405  0.01973375  0.60182640     0.45200
H395        H  0.44509152  0.02099721  0.31126377     0.44400
H396        H  0.64782677  0.04725953  0.40211184     0.45600
C397        C  0.67733857  0.80859346  0.49454475    -0.14400
C398        C  0.66674437  0.84787572  0.46760302    -0.29500
H399        H  0.65074599  0.79363407  0.51944727     0.14700
H400        H  0.69426489  0.86151124  0.44283214     0.15200
C401        C  0.85113164  0.85024375  0.49844821    -0.11200
C402        C  0.88167875  0.88137643  0.49603394    -0.12800
C403        C  0.33637185  0.20494651  0.51037838    -0.14400
C404        C  0.34595858  0.16566625  0.53787992    -0.29500
H405        H  0.36408887  0.21983742  0.48669381     0.14700
H406        H  0.31718160  0.15195194  0.56113421     0.15200
C407        C  0.16453286  0.16089188  0.48671671    -0.11200
C408        C  0.13385605  0.12985004  0.48499741    -0.12800
C409        C  0.67778804  0.20582819  0.48016762    -0.14400
C410        C  0.66770127  0.16722362  0.50829701    -0.29500
H411        H  0.65033972  0.22108133  0.45644598     0.14700
H412        H  0.69649329  0.15323299  0.53131383     0.15200
C413        C  0.85157209  0.16164262  0.46855186    -0.11200
C414        C  0.88270975  0.13076335  0.47017821    -0.12800
C415        C  0.34666369  0.84670575  0.48283787    -0.14400
C416        C  0.33618406  0.80714112  0.50945349    -0.29500
H417        H  0.31887301  0.86085058  0.45871504     0.14700
H418        H  0.36287509  0.79176950  0.53395593     0.15200
C419        C  0.13184290  0.88046426  0.51078549    -0.11200
C420        C  0.16238541  0.84932924  0.51397530    -0.12800
C421        C  0.49111564  0.80572617  0.66598930    -0.14400
C422        C  0.52426066  0.84061670  0.65791373    -0.29500
H423        H  0.46650197  0.79442959  0.63735956     0.14700
H424        H  0.54682198  0.85164510  0.68842400     0.15200
C425        C  0.45100078  0.85846542  0.83364393    -0.11200
C426        C  0.44747308  0.88949700  0.86476165    -0.12800
C427        C  0.48962412  0.20288426  0.67518613    -0.14400
C428        C  0.51291577  0.15988979  0.67124093    -0.29500
H429        H  0.47566637  0.22100937  0.64317478     0.14700
H430        H  0.52774627  0.14391902  0.70408017     0.15200
C431        C  0.44720807  0.14201456  0.87852712    -0.11200
C432        C  0.45097178  0.17328250  0.84807458    -0.12800
C433        C  0.50222761  0.20556335  0.33056069    -0.14400
C434        C  0.47208444  0.17208364  0.34937112    -0.29500
H435        H  0.53494737  0.21611147  0.34978159     0.14700
H436        H  0.43996163  0.16242294  0.32862599     0.15200
C437        C  0.46077081  0.13012765  0.12849661    -0.11200
C438        C  0.46750390  0.16024705  0.15978451    -0.12800
C439        C  0.49708356  0.81447385  0.32110552    -0.14400
C440        C  0.47010039  0.85188241  0.33771885    -0.29500
H441        H  0.52664228  0.80016209  0.34281312     0.14700
H442        H  0.44051428  0.86493806  0.31522095     0.15200
C443        C  0.46019443  0.87898001  0.11580801    -0.11200
C444        C  0.46536837  0.84869677  0.14695364    -0.12800
C445        C  0.84814151  0.35011215  0.44810878    -0.14400
C446        C  0.80876889  0.33632801  0.47363668    -0.29500
H447        H  0.86221830  0.32520986  0.42070044     0.14700
H448        H  0.79314543  0.36031239  0.50091921     0.15200
C449        C  0.80677863  0.67643466  0.50396789    -0.14400
C450        C  0.84439221  0.66413232  0.53261582    -0.29500
H451        H  0.79323852  0.65129262  0.47670397     0.14700
H452        H  0.85661475  0.69065767  0.55930587     0.15200
C453        C  0.20596426  0.33560441  0.49085970    -0.14400
C454        C  0.16892095  0.34838944  0.46155476    -0.29500
H455        H  0.21913669  0.36069313  0.51835079     0.14700
H456        H  0.15713370  0.32239464  0.43419152     0.15200
C457        C  0.16680281  0.66297594  0.53957246    -0.14400
C458        C  0.20652383  0.67543918  0.51401487    -0.29500
H459        H  0.15271011  0.68885684  0.56606347     0.14700
H460        H  0.22223928  0.65057210  0.48758466     0.15200
C461        C  0.84887314  0.51557779  0.65812367    -0.14400
C462        C  0.80592699  0.49396053  0.66707329    -0.29500
H463        H  0.86648916  0.53418843  0.68823243     0.14700
H464        H  0.78637616  0.47554106  0.63820412     0.15200
C465        C  0.87746400  0.45781449  0.87118346    -0.11200
C466        C  0.84697917  0.46405217  0.84012548    -0.12800
C467        C  0.20296783  0.47427136  0.66999323    -0.14400
C468        C  0.16292161  0.50077088  0.66078915    -0.29500
H469        H  0.22018354  0.45291077  0.64152241     0.14700
H470        H  0.14723063  0.52165801  0.69056899     0.15200
C471        C  0.16122826  0.45806197  0.84429500    -0.11200
C472        C  0.12994502  0.45554978  0.87504138    -0.12800
C473        C  0.80928848  0.49860734  0.32645546    -0.14400
C474        C  0.85056683  0.52437993  0.33107480    -0.29500
H475        H  0.79219781  0.48212774  0.35786479     0.14700
H476        H  0.86562690  0.54093049  0.29856417     0.15200
C477        C  0.87488128  0.45104643  0.12329623    -0.11200
C478        C  0.84495403  0.45669080  0.15494813    -0.12800
C479        C  0.20454444  0.49545230  0.32773075    -0.14400
C480        C  0.16805008  0.52729025  0.33484681    -0.29500
H481        H  0.21823112  0.47375991  0.35756278     0.14700
H482        H  0.15556797  0.54790569  0.30362899     0.15200
C483        C  0.15779373  0.45488698  0.15817102    -0.11200
C484        C  0.12688241  0.45087492  0.12715329    -0.12800
C485        C  0.52625066  0.33831740  0.15150692    -0.14400
C486        C  0.50559303  0.33217274  0.19555767    -0.29500
H487        H  0.54261191  0.30672475  0.13410351     0.14700
H488        H  0.49009598  0.36281202  0.21514651     0.15200
C489        C  0.46377853  0.65786530  0.16486452    -0.14400
C490        C  0.49529316  0.67865574  0.19581996    -0.29500
H491        H  0.43061991  0.67753581  0.15642166     0.14700
H492        H  0.52937994  0.66081248  0.20432940     0.15200
C493        C  0.48096233  0.68336605  0.80339484    -0.14400
C494        C  0.50121626  0.67821912  0.84762462    -0.29500
H495        H  0.46754320  0.65198852  0.78357164     0.14700
H496        H  0.51548110  0.71050199  0.86541202     0.15200
C497        C  0.66825375  0.52950205  0.83892379    -0.14400
C498        C  0.67573790  0.50168227  0.79910953    -0.29500
H499        H  0.69905578  0.54967328  0.85314432     0.14700
H500        H  0.64630861  0.48068541  0.78344589     0.15200
C501        C  0.51761327  0.35076695  0.83181345    -0.14400
C502        C  0.48419560  0.34198079  0.79732390    -0.29500
H503        H  0.54134682  0.32087021  0.84196073     0.14700
H504        H  0.45801132  0.36965979  0.78725867     0.15200
C505        C  0.34325317  0.51165960  0.83689974    -0.14400
C506        C  0.33405604  0.48111924  0.79969451    -0.29500
H507        H  0.31361013  0.53431423  0.85008015     0.14700
H508        H  0.36222825  0.45727547  0.78559624     0.15200
C509        C  0.33949769  0.50418079  0.15500585    -0.14400
C510        C  0.33206984  0.47836491  0.19573674    -0.29500
H511        H  0.30852377  0.52330874  0.13973398     0.14700
H512        H  0.36158151  0.45879398  0.21292507     0.15200
C513        C  0.66743574  0.51984421  0.15904682    -0.14400
C514        C  0.67505478  0.49364416  0.19954241    -0.29500
H515        H  0.69823751  0.53964139  0.14432130     0.14700
H516        H  0.64585929  0.47323808  0.21626674     0.15200
loop_ 
_geom_bond_atom_site_label_1 
_geom_bond_atom_site_label_2 
_geom_bond_distance 
_geom_bond_site_symmetry_2 
_ccdc_geom_bond_type 
O1          Zr13   2.435   1_554  S
O1            C3   1.287       .  A
O2          Zr39   2.462       .  S
O2            C3   1.292       .  A
C3          C485   1.483       .  S
O4          Zr16   2.437       .  S
O4            C6   1.287       .  A
O5          Zr40   2.464       .  S
O5            C6   1.293       .  A
C6          C497   1.482       .  S
O7          Zr16   2.427   1_554  S
O7            C9   1.285       .  A
O8          Zr39   2.469       .  S
O8            C9   1.294       .  A
C9          C513   1.481       .  S
O10         Zr13   2.427       .  S
O10          C12   1.285       .  A
O11         Zr40   2.460       .  S
O11          C12   1.292       .  A
C12         C501   1.477       .  S
Zr13         O14   2.435       .  S
Zr13         O15   2.433       .  S
Zr13         O19   2.364   1_556  S
Zr13         O20   2.370       .  S
Zr13         O43   2.372       .  S
Zr13         O45   2.369   1_556  S
O14          H57   0.990       .  S
O15          H56   0.990       .  S
O15          H60   0.990       .  S
Zr16         O17   2.435       .  S
Zr16         O18   2.436   1_556  S
Zr16         O20   2.366       .  S
Zr16         O19   2.368   1_556  S
Zr16         O44   2.375   1_556  S
Zr16         O46   2.365       .  S
O17          H58   0.990       .  S
O17          H61   0.990   1_556  S
O18          H51   0.990   1_554  S
O19         Zr39   2.396       .  S
O20         Zr40   2.403       .  S
O20          H47   0.968       .  S
O21         Zr33   2.435       .  S
O21          C23   1.286       .  A
O22         Zr40   2.457       .  S
O22          C23   1.291       .  A
C23         C505   1.476       .  S
O24         Zr36   2.425       .  S
O24          C26   1.285       .  A
O25         Zr39   2.457       .  S
O25          C26   1.291       .  A
C26         C489   1.472       .  S
O27         Zr36   2.423   1_556  S
O27          C29   1.285       .  A
O28         Zr40   2.466       .  S
O28          C29   1.293       .  A
C29         C494   1.479       .  S
O30         Zr33   2.419   1_554  S
O30          C32   1.283       .  A
O31         Zr39   2.471       .  S
O31          C32   1.294       .  A
C32         C509   1.478       .  S
Zr33         O34   2.437   1_556  S
Zr33         O35   2.435       .  S
Zr33         O41   2.367       .  S
Zr33         O42   2.359   1_556  S
Zr33         O45   2.375   1_556  S
Zr33         O43   2.362       .  S
O34          H54   0.990   1_554  S
O34          H59   0.991   1_554  S
O35          H55   0.990   1_556  S
Zr36         O37   2.437   1_554  S
Zr36         O38   2.431       .  S
Zr36         O42   2.357       .  S
Zr36         O41   2.365   1_554  S
Zr36         O46   2.363   1_554  S
Zr36         O44   2.363       .  S
O37          H53   0.990       .  S
O38          H52   0.990   1_554  S
O38          H62   0.990       .  S
Zr39         O42   2.392       .  S
Zr39         O44   2.406       .  S
Zr39         O45   2.401       .  S
Zr40         O41   2.401       .  S
Zr40         O43   2.394       .  S
Zr40         O46   2.398       .  S
O41          H49   0.967       .  S
O44          H48   0.966       .  S
O45          H50   0.968       .  S
C63         C479   1.492       .  S
C63          C64   1.412       .  A
C63          C68   1.412       .  A
C64          C65   1.412       .  A
C64          H69   1.083       .  S
C65         C510   1.495       .  S
C65          C66   1.412       .  A
C66          C67   1.397       .  A
C66          H70   1.085       .  S
C67          C68   1.397       .  A
C67         C483   1.450       .  S
C68          H71   1.084       .  S
C72         C473   1.494       .  S
C72          C73   1.415       .  A
C72          C77   1.411       .  A
C73          C74   1.414       .  A
C73          H78   1.083       .  S
C74         C514   1.495       .  S
C74          C75   1.410       .  A
C75          C76   1.392       .  A
C75          H79   1.085       .  S
C76          C77   1.394       .  A
C76         C478   1.443       .  S
C77          H80   1.085       .  S
C81         C506   1.494       .  S
C81          C82   1.411       .  A
C81          C86   1.414       .  A
C82          C83   1.395       .  A
C82          H87   1.085       .  S
C83          C84   1.394       .  A
C83         C471   1.446       .  S
C84          C85   1.411       .  A
C84          H88   1.085       .  S
C85         C467   1.496       .  S
C85          C86   1.414       .  A
C86          H89   1.083       .  S
C90         C498   1.497       .  S
C90          C91   1.411       .  A
C90          C95   1.416       .  A
C91          C92   1.396       .  A
C91          H96   1.084       .  S
C92          C93   1.395       .  A
C92         C466   1.451       .  S
C93          C94   1.413       .  A
C93          H97   1.084       .  S
C94         C462   1.500       .  S
C94          C95   1.416       .  A
C95          H98   1.083       .  S
N99         C104   1.356       .  A
N99         C103   1.354   1_455  A
N99         H131   1.030       .  S
N100        C107   1.353   1_556  A
N100        C108   1.354       .  A
N101        C106   1.357       .  A
N101        C105   1.358   1_455  A
N101        H132   1.036       .  S
N102        C109   1.354       .  A
N102        C110   1.352   1_554  A
C103        C111   1.390       .  A
C103        C119   1.421       .  A
C104        C120   1.421       .  A
C104        C112   1.388       .  A
C105        C113   1.388       .  A
C105        C122   1.422       .  A
C106        C121   1.422       .  A
C106        C114   1.388       .  A
C107        C119   1.421       .  A
C107        C115   1.388       .  A
C108        C122   1.419       .  A
C108        C116   1.387       .  A
C109        C117   1.387       .  A
C109        C120   1.419       .  A
C110        C118   1.388       .  A
C110        C121   1.418       .  A
C111        C112   1.375   1_655  A
C111        H123   1.083       .  S
C112        H124   1.082       .  S
C113        C114   1.375   1_655  A
C113        H125   1.083       .  S
C114        H126   1.083       .  S
C115        C116   1.374   1_554  A
C115        H127   1.083       .  S
C116        H128   1.083       .  S
C117        C118   1.373   1_554  A
C117        H129   1.082       .  S
C118        H130   1.082       .  S
C119        C477   1.454       .  S
C120        C484   1.461       .  S
C121        C472   1.457       .  S
C122        C465   1.462       .  S
O133       Zr145   2.425       .  S
O133        C135   1.285       .  A
O134       Zr171   2.465       .  S
O134        C135   1.293       .  A
C135        C480   1.478       .  S
O136       Zr148   2.439   1_655  S
O136        C138   1.287       .  A
O137       Zr172   2.454       .  S
O137        C138   1.291       .  A
C138        C450   1.478       .  S
O139       Zr148   2.439       .  S
O139        C141   1.288       .  A
O140       Zr171   2.445       .  S
O140        C141   1.289       .  A
C141        C457   1.473       .  S
O142       Zr145   2.425   1_655  S
O142        C144   1.285       .  A
O143       Zr172   2.459       .  S
O143        C144   1.292       .  A
C144        C474   1.478       .  S
Zr145       O146   2.433       .  S
Zr145       O147   2.438       .  S
Zr145       O151   2.368       .  S
Zr145       O152   2.366   1_455  S
Zr145       O175   2.366   1_455  S
Zr145       O177   2.366       .  S
O146        H189   0.990       .  S
O147        H188   0.990   1_455  S
O147        H192   0.990   1_455  S
Zr148       O149   2.437       .  S
Zr148       O150   2.435       .  S
Zr148       O152   2.368   1_455  S
Zr148       O151   2.373       .  S
Zr148       O176   2.359       .  S
Zr148       O178   2.364   1_455  S
O149        H190   0.990   1_455  S
O149        H193   0.990       .  S
O150        H183   0.990   1_455  S
O151       Zr171   2.405       .  S
O152       Zr172   2.404       .  S
O152        H179   0.962       .  S
O153       Zr165   2.432   1_655  S
O153        C155   1.286       .  A
O154       Zr172   2.458       .  S
O154        C155   1.292       .  A
C155        C445   1.478       .  S
O156       Zr168   2.436       .  S
O156        C158   1.286       .  A
O157       Zr171   2.462       .  S
O157        C158   1.292       .  A
C158        C468   1.477       .  S
O159       Zr168   2.436   1_655  S
O159        C161   1.285       .  A
O160       Zr172   2.465       .  S
O160        C161   1.291       .  A
C161        C461   1.482       .  S
O162       Zr165   2.438       .  S
O162        C164   1.287       .  A
O163       Zr171   2.455       .  S
O163        C164   1.291       .  A
C164        C454   1.479       .  S
Zr165       O166   2.434       .  S
Zr165       O167   2.434       .  S
Zr165       O173   2.378   1_455  S
Zr165       O174   2.370       .  S
Zr165       O177   2.364       .  S
Zr165       O175   2.366   1_455  S
O166        H186   0.990   1_455  S
O166        H191   0.990       .  S
O167        H187   0.990       .  S
Zr168       O169   2.434   1_455  S
Zr168       O170   2.440       .  S
Zr168       O174   2.367       .  S
Zr168       O173   2.368   1_455  S
Zr168       O178   2.366   1_455  S
Zr168       O176   2.371       .  S
O169        H185   0.990   1_655  S
O170        H184   0.990   1_455  S
O170        H194   0.991   1_455  S
Zr171       O174   2.399       .  S
Zr171       O176   2.404       .  S
Zr171       O177   2.395       .  S
Zr172       O173   2.409       .  S
Zr172       O175   2.394       .  S
Zr172       O178   2.395       .  S
O173        H181   0.967       .  S
O176        H180   0.963       .  S
O177        H182   0.968       .  S
C195        C439   1.496       .  S
C195        C196   1.412       .  A
C195        C200   1.412       .  A
C196        C197   1.412       .  A
C196        H201   1.083       .  S
C197        C490   1.489       .  S
C197        C198   1.409       .  A
C198        C199   1.393       .  A
C198        H202   1.085       .  S
C199        C200   1.396       .  A
C199        C444   1.443       .  S
C200        H203   1.084       .  S
C204        C433   1.495       .  S
C204        C205   1.416       .  A
C204        C209   1.411       .  A
C205        C206   1.416       .  A
C205        H210   1.083       .  S
C206        C486   1.498       .  S
C206        C207   1.410       .  A
C207        C208   1.392       .  A
C207        H211   1.084       .  S
C208        C209   1.392       .  A
C208        C438   1.443       .  S
C209        H212   1.084       .  S
C213        C502   1.489       .  S
C213        C214   1.414       .  A
C213        C218   1.409       .  A
C214        C215   1.414       .  A
C214        H219   1.083       .  S
C215        C427   1.497       .  S
C215        C216   1.411       .  A
C216        C217   1.394       .  A
C216        H220   1.084       .  S
C217        C218   1.395       .  A
C217        C432   1.445       .  S
C218        H221   1.085       .  S
C222        C493   1.498       .  S
C222        C223   1.412       .  A
C222        C227   1.414       .  A
C223        C224   1.395       .  A
C223        H228   1.084       .  S
C224        C225   1.395       .  A
C224        C425   1.447       .  S
C225        C226   1.410       .  A
C225        H229   1.085       .  S
C226        C421   1.491       .  S
C226        C227   1.413       .  A
C227        H230   1.083       .  S
N231        C236   1.355       .  A
N231        C235   1.353   1_545  A
N231        H263   1.036       .  S
N232        C239   1.354   1_556  A
N232        C240   1.354       .  A
N233        C238   1.355       .  A
N233        C237   1.356   1_545  A
N233        H264   1.035       .  S
N234        C241   1.353       .  A
N234        C242   1.353   1_554  A
C235        C243   1.389       .  A
C235        C251   1.416       .  A
C236        C252   1.415       .  A
C236        C244   1.387       .  A
C237        C245   1.388       .  A
C237        C254   1.419       .  A
C238        C253   1.420       .  A
C238        C246   1.389       .  A
C239        C251   1.416       .  A
C239        C247   1.387       .  A
C240        C254   1.418       .  A
C240        C248   1.388       .  A
C241        C249   1.386       .  A
C241        C252   1.414       .  A
C242        C250   1.387       .  A
C242        C253   1.416       .  A
C243        C244   1.373   1_565  A
C243        H255   1.082       .  S
C244        H256   1.083       .  S
C245        C246   1.376   1_565  A
C245        H257   1.083       .  S
C246        H258   1.082       .  S
C247        C248   1.373   1_554  A
C247        H259   1.082       .  S
C248        H260   1.082       .  S
C249        C250   1.372   1_554  A
C249        H261   1.083       .  S
C250        H262   1.082       .  S
C251        C443   1.453       .  S
C252        C437   1.454       .  S
C253        C431   1.456       .  S
C254        C426   1.458       .  S
C265        C458   1.492       .  S
C265        C266   1.414       .  A
C265        C270   1.410       .  A
C266        C267   1.414       .  A
C266        H271   1.083       .  S
C267        C416   1.491       .  S
C267        C268   1.409       .  A
C268        C269   1.388       .  A
C268        H272   1.084       .  S
C269        C270   1.389       .  A
C269        C420   1.437       .  S
C270        H273   1.084       .  S
C274        C409   1.495       .  S
C274        C275   1.411       .  A
C274        C279   1.415       .  A
C275        C276   1.392       .  A
C275        H280   1.084       .  S
C276        C277   1.392       .  A
C276        C413   1.443       .  S
C277        C278   1.411       .  A
C277        H281   1.084       .  S
C278        C446   1.496       .  S
C278        C279   1.416       .  A
C279        H282   1.083       .  S
C283        C403   1.494       .  S
C283        C284   1.417       .  A
C283        C288   1.408       .  A
C284        C285   1.417       .  A
C284        H289   1.083       .  S
C285        C453   1.498       .  S
C285        C286   1.410       .  A
C286        C287   1.391       .  A
C286        H290   1.084       .  S
C287        C288   1.390       .  A
C287        C407   1.437       .  S
C288        H291   1.084       .  S
C292        C449   1.493       .  S
C292        C293   1.410       .  A
C292        C297   1.415       .  A
C293        C294   1.391       .  A
C293        H298   1.084       .  S
C294        C295   1.388       .  A
C294        C401   1.438       .  S
C295        C296   1.409       .  A
C295        H299   1.084       .  S
C296        C397   1.491       .  S
C296        C297   1.414       .  A
C297        H300   1.083       .  S
N301        C306   1.352   1_455  A
N301        C305   1.352       .  A
N301        H333   1.034       .  S
N302        C309   1.352   1_545  A
N302        C310   1.351       .  A
N303        C308   1.354   1_455  A
N303        C307   1.353       .  A
N303        H334   1.035       .  S
N304        C311   1.352   1_545  A
N304        C312   1.352       .  A
C305        C313   1.388       .  A
C305        C321   1.414       .  A
C306        C322   1.415       .  A
C306        C314   1.389       .  A
C307        C315   1.389       .  A
C307        C324   1.416       .  A
C308        C323   1.417       .  A
C308        C316   1.389       .  A
C309        C321   1.414       .  A
C309        C317   1.387       .  A
C310        C324   1.413       .  A
C310        C318   1.387       .  A
C311        C319   1.387       .  A
C311        C322   1.416       .  A
C312        C320   1.387       .  A
C312        C323   1.415       .  A
C313        C314   1.374   1_455  A
C313        H325   1.083       .  S
C314        H326   1.083       .  S
C315        C316   1.376   1_455  A
C315        H327   1.083       .  S
C316        H328   1.083       .  S
C317        C318   1.372   1_565  A
C317        H329   1.083       .  S
C318        H330   1.082       .  S
C319        C320   1.373   1_565  A
C319        H331   1.082       .  S
C320        H332   1.082       .  S
C321        C419   1.448       .  S
C322        C402   1.449       .  S
C323        C414   1.454       .  S
C324        C408   1.448       .  S
O335       Zr347   2.436   1_565  S
O335        C337   1.287       .  A
O336       Zr373   2.446       .  S
O336        C337   1.289       .  A
C337        C415   1.472       .  S
O338       Zr350   2.425       .  S
O338        C340   1.284       .  A
O339       Zr374   2.458       .  S
O339        C340   1.291       .  A
C340        C434   1.474       .  S
O341       Zr350   2.430   1_565  S
O341        C343   1.285       .  A
O342       Zr373   2.457       .  S
O342        C343   1.291       .  A
C343        C440   1.477       .  S
O344       Zr347   2.440       .  S
O344        C346   1.288       .  A
O345       Zr374   2.449       .  S
O345        C346   1.290       .  A
C346        C404   1.478       .  S
Zr347       O348   2.435       .  S
Zr347       O349   2.438   1_545  S
Zr347       O353   2.361   1_545  S
Zr347       O354   2.371       .  S
Zr347       O377   2.363       .  S
Zr347       O379   2.369   1_545  S
O348        H391   0.990       .  S
O349        H390   0.990       .  S
O349        H394   0.990   1_565  S
Zr350       O351   2.436       .  S
Zr350       O352   2.434       .  S
Zr350       O354   2.375       .  S
Zr350       O353   2.360   1_545  S
Zr350       O378   2.362   1_545  S
Zr350       O380   2.370       .  S
O351        H392   0.990       .  S
O351        H395   0.990       .  S
O352        H385   0.990       .  S
O353       Zr373   2.391       .  S
O354       Zr374   2.404       .  S
O354        H381   0.964       .  S
O355       Zr367   2.429       .  S
O355        C357   1.286       .  A
O356       Zr374   2.458       .  S
O356        C357   1.292       .  A
C357        C428   1.480       .  S
O358       Zr370   2.429   1_565  S
O358        C360   1.286       .  A
O359       Zr373   2.446       .  S
O359        C360   1.289       .  A
C360        C398   1.470       .  S
O361       Zr370   2.432       .  S
O361        C363   1.286       .  A
O362       Zr374   2.463       .  S
O362        C363   1.292       .  A
C363        C410   1.476       .  S
O364       Zr367   2.422   1_565  S
O364        C366   1.284       .  A
O365       Zr373   2.464       .  S
O365        C366   1.293       .  A
C366        C422   1.478       .  S
Zr367       O368   2.437       .  S
Zr367       O369   2.434   1_545  S
Zr367       O375   2.361       .  S
Zr367       O376   2.367   1_545  S
Zr367       O379   2.373   1_545  S
Zr367       O377   2.366       .  S
O368        H388   0.990       .  S
O368        H393   0.990       .  S
O369        H389   0.990       .  S
Zr370       O371   2.434       .  S
Zr370       O372   2.435       .  S
Zr370       O376   2.372   1_545  S
Zr370       O375   2.370       .  S
Zr370       O380   2.372       .  S
Zr370       O378   2.372   1_545  S
O371        H387   0.990   1_545  S
O372        H386   0.990   1_545  S
O372        H396   0.990       .  S
Zr373       O376   2.394       .  S
Zr373       O378   2.403       .  S
Zr373       O379   2.399       .  S
Zr374       O375   2.398       .  S
Zr374       O377   2.396       .  S
Zr374       O380   2.398       .  S
O375        H383   0.965       .  S
O378        H382   0.967       .  S
O379        H384   0.966       .  S
C397        C398   1.347       .  D
C397        H399   1.086       .  S
C398        H400   1.088       .  S
C401        C402   1.205       .  T
C403        C404   1.349       .  D
C403        H405   1.086       .  S
C404        H406   1.088       .  S
C407        C408   1.204       .  T
C409        C410   1.347       .  D
C409        H411   1.086       .  S
C410        H412   1.088       .  S
C413        C414   1.208       .  T
C415        C416   1.347       .  D
C415        H417   1.088       .  S
C416        H418   1.086       .  S
C419        C420   1.204       .  T
C421        C422   1.346       .  D
C421        H423   1.086       .  S
C422        H424   1.089       .  S
C425        C426   1.211       .  T
C427        C428   1.350       .  D
C427        H429   1.086       .  S
C428        H430   1.088       .  S
C431        C432   1.209       .  T
C433        C434   1.347       .  D
C433        H435   1.086       .  S
C434        H436   1.087       .  S
C437        C438   1.208       .  T
C439        C440   1.347       .  D
C439        H441   1.086       .  S
C440        H442   1.087       .  S
C443        C444   1.208       .  T
C445        C446   1.348       .  D
C445        H447   1.088       .  S
C446        H448   1.086       .  S
C449        C450   1.348       .  D
C449        H451   1.086       .  S
C450        H452   1.088       .  S
C453        C454   1.350       .  D
C453        H455   1.086       .  S
C454        H456   1.087       .  S
C457        C458   1.346       .  D
C457        H459   1.088       .  S
C458        H460   1.086       .  S
C461        C462   1.349       .  D
C461        H463   1.088       .  S
C462        H464   1.085       .  S
C465        C466   1.213       .  T
C467        C468   1.347       .  D
C467        H469   1.086       .  S
C468        H470   1.088       .  S
C471        C472   1.210       .  T
C473        C474   1.348       .  D
C473        H475   1.086       .  S
C474        H476   1.088       .  S
C477        C478   1.208       .  T
C479        C480   1.347       .  D
C479        H481   1.086       .  S
C480        H482   1.088       .  S
C483        C484   1.212       .  T
C485        C486   1.350       .  D
C485        H487   1.088       .  S
C486        H488   1.086       .  S
C489        C490   1.345       .  D
C489        H491   1.088       .  S
C490        H492   1.086       .  S
C493        C494   1.349       .  D
C493        H495   1.086       .  S
C494        H496   1.087       .  S
C497        C498   1.350       .  D
C497        H499   1.088       .  S
C498        H500   1.086       .  S
C501        C502   1.346       .  D
C501        H503   1.088       .  S
C502        H504   1.086       .  S
C505        C506   1.347       .  D
C505        H507   1.088       .  S
C506        H508   1.086       .  S
C509        C510   1.346       .  D
C509        H511   1.089       .  S
C510        H512   1.086       .  S
C513        C514   1.348       .  D
C513        H515   1.089       .  S
C514        H516   1.085       .  S
