geometry optimzed in LAMMPS
_audit_creation_date              2020-11-30 
_audit_creation_method            'lammps2cif' 
_symmetry_space_group_name_H-M    'P1' 
_symmetry_Int_Tables_number       1 
_symmetry_cell_setting            triclinic 
loop_ 
_symmetry_equiv_pos_as_xyz 
  x,y,z 
_cell_length_a                    28.33798548 
_cell_length_b                    28.493699607023824 
_cell_length_c                    28.64048906488778 
_cell_angle_alpha                 89.4484988648203 
_cell_angle_beta                  89.522383385891 
_cell_angle_gamma                 88.05517149232608 
loop_ 
_atom_site_label 
_atom_site_type_symbol 
_atom_site_fract_x 
_atom_site_fract_y 
_atom_site_fract_z 
_atom_site_charge 
O1          O  0.46561415  0.57402804  0.05826436    -0.80000
O2          O  0.40842763  0.51105105  0.95677053    -0.80100
O3          O  0.50077350  0.57855743  0.95585053    -0.80100
O4          O  0.41018618  0.42685835  0.05945162    -0.80000
O5          O  0.47375262  0.54366150  0.89293891    -0.80100
O6          O  0.40436330  0.50343438  0.06653861    -0.80100
O7          O  0.40874990  0.43402831  0.96701323    -0.80000
O8          O  0.54004696  0.57887604  0.04288924    -0.80100
C9          C  0.50266439  0.59683215  0.06064972     1.09700
C10         C  0.38785875  0.47209759  0.95375386     1.09500
C11         C  0.48591162  0.58062910  0.91315938     1.09700
C12         C  0.38697816  0.46365738  0.07205190     1.09600
O13         O  0.47683788  0.44368129  0.11097379    -0.80000
O14         O  0.55013605  0.49819632  0.93035729    -0.80100
O15         O  0.57896555  0.48590971  0.03562279    -0.80000
O16         O  0.50762531  0.40303104  0.96084343    -0.80000
O17         O  0.47356622  0.44970293  0.91031086    -0.80100
O18         O  0.54006375  0.51061054  0.09876303    -0.80000
O19         O  0.51010321  0.40094281  0.05572990    -0.80000
O20         O  0.59260110  0.55136528  0.96623803    -0.80100
Co21       Co  0.47153309  0.50797893  0.07980018     1.51500
Co22       Co  0.47839310  0.50781378  0.94854700     1.51700
Co23       Co  0.53839663  0.52706965  0.99568737     1.51600
Co24       Co  0.46184446  0.41972246  0.01077556     1.51500
O25         O  0.48453521  0.48638255  0.01417976    -1.42000
C26         C  0.49952272  0.40649604  0.09801594     1.09600
C27         C  0.58871715  0.52092350  0.93456315     1.09700
C28         C  0.57683883  0.49196821  0.07944016     1.09600
C29         C  0.49344267  0.41032029  0.91983503     1.09600
N30         N  0.20240976  0.45028083  0.21860576    -0.03400
C31         C  0.24815705  0.43654215  0.21351222    -0.00800
C32         C  0.26595736  0.41873563  0.25502336    -0.23700
C33         C  0.22919222  0.42088822  0.28671199    -0.23900
C34         C  0.19060565  0.43993221  0.26315678    -0.00900
H35         H  0.30206428  0.40734324  0.26193877     0.12900
H36         H  0.23090217  0.41164362  0.32340999     0.12900
N37         N  0.76065838  0.47794881  0.22697867    -0.03400
C38         C  0.71432093  0.46760326  0.22313098    -0.00800
C39         C  0.69346266  0.46606849  0.26693595    -0.23700
C40         C  0.72775198  0.47595813  0.29857477    -0.23900
C41         C  0.76850066  0.48373172  0.27327215    -0.00900
H42         H  0.65661640  0.46084303  0.27493939     0.12900
H43         H  0.72322588  0.47834488  0.33604694     0.12900
N44         N  0.22306057  0.46911153  0.78479588    -0.03400
C45         C  0.22644517  0.46651444  0.73757934    -0.00800
C46         C  0.27218372  0.45383466  0.72449949    -0.23700
C47         C  0.29795387  0.44984421  0.76469825    -0.23900
C48         C  0.26700054  0.45916803  0.80119356    -0.00900
H49         H  0.28545393  0.44805481  0.68941852     0.12900
H50         H  0.33530023  0.44099504  0.76713898     0.12900
N51         N  0.75506412  0.48598594  0.76891209    -0.03400
C52         C  0.76006356  0.47838393  0.72247115    -0.00800
C53         C  0.71692710  0.46868871  0.70315374    -0.23700
C54         C  0.68425050  0.47038295  0.73886658    -0.23900
C55         C  0.70857147  0.48157479  0.77852004    -0.00900
H56         H  0.70979121  0.46274121  0.66665994     0.12900
H57         H  0.64662440  0.46594676  0.73591042     0.12900
N58         N  0.98069004  0.50935954  0.92138373    -0.36500
N59         N  0.90808643  0.50920694  0.99346701    -0.57100
N60         N  0.98019440  0.49953763  0.06471965    -0.36500
N61         N  0.05248243  0.49763283  0.99284598    -0.57100
C62         C  0.94190526  0.50225395  0.89554194     0.27100
C63         C  0.01860346  0.49537686  0.89540205     0.27100
C64         C  0.94125327  0.48999515  0.09025817     0.27100
C65         C  0.01808178  0.48449305  0.08989402     0.27100
C66         C  0.88066679  0.51980837  0.95619342     0.35700
C67         C  0.88024446  0.51419790  0.03176600     0.35700
C68         C  0.08075489  0.50324952  0.95524797     0.35700
C69         C  0.08061233  0.49890119  0.03055582     0.35700
C70         C  0.95542510  0.48419661  0.85242498    -0.21800
C71         C  0.00385554  0.47995454  0.85232359    -0.21800
C72         C  0.95463160  0.46939677  0.13243864    -0.21800
C73         C  0.00310748  0.46599201  0.13222439    -0.21800
C74         C  0.83516384  0.53191046  0.97087816    -0.22800
C75         C  0.83489372  0.52834255  0.01882177    -0.22800
C76         C  0.12710281  0.50816131  0.96910229    -0.22800
C77         C  0.12699957  0.50541234  0.01691942    -0.22800
C78         C  0.89469440  0.51281454  0.90920640    -0.18200
C79         C  0.06625764  0.49818948  0.90869035    -0.18200
C80         C  0.06585040  0.48883808  0.07651540    -0.18200
C81         C  0.89409237  0.50159076  0.07762853    -0.18200
H82         H  0.93278016  0.47500937  0.82390675     0.14700
H83         H  0.02569708  0.46699847  0.82373716     0.14700
H84         H  0.93188123  0.45824643  0.16069242     0.14700
H85         H  0.02481575  0.45166069  0.16019617     0.14700
H86         H  0.80499167  0.54082294  0.94920629     0.13000
H87         H  0.80449791  0.53409907  0.04144909     0.13000
H88         H  0.15800212  0.51170835  0.94703446     0.13000
H89         H  0.15776794  0.50643766  0.03898682     0.13000
H90         H  0.98149516  0.52703943  0.95303429     0.26300
H91         H  0.98101617  0.51953431  0.03437924     0.26300
O92         O  0.05087327  0.51763002  0.42479106    -0.80000
O93         O  0.94721227  0.57200940  0.48174687    -0.80100
O94         O  0.94865814  0.48135804  0.41724737    -0.80100
O95         O  0.04285586  0.57708697  0.57153317    -0.80000
O96         O  0.88316216  0.50981060  0.45011353    -0.80100
O97         O  0.05779353  0.58201196  0.49624650    -0.80100
O98         O  0.94927437  0.57867607  0.55831727    -0.80000
O99         O  0.03725339  0.44349710  0.42060551    -0.80100
C100        C  0.05332679  0.48009533  0.40193660     1.09700
C101        C  0.93973540  0.59620061  0.51818250     1.09500
C102        C  0.90537368  0.49723964  0.41358598     1.09700
C103        C  0.05955354  0.59930413  0.53675380     1.09600
O104        O  0.09938044  0.50921328  0.55508357    -0.80000
O105        O  0.91941539  0.43288678  0.49560594    -0.80100
O106        O  0.02776433  0.40808631  0.51363598    -0.80000
O107        O  0.94730589  0.48025901  0.59063193    -0.80000
O108        O  0.89623184  0.51303117  0.54382163    -0.80100
O109        O  0.09110294  0.44462004  0.48829283    -0.80000
O110        O  0.04322818  0.47996924  0.59885669    -0.80000
O111        O  0.96335200  0.39152218  0.44552938    -0.80100
Co112      Co  0.07054150  0.51337421  0.49088367     1.51500
Co113      Co  0.93788027  0.50420166  0.48718311     1.51700
Co114      Co  0.98797299  0.44619870  0.47083034     1.51600
Co115      Co  0.99564271  0.52626370  0.57643310     1.51500
O116        O  0.00361459  0.50063494  0.51088464    -1.42000
C117        C  0.08604101  0.48934621  0.59283326     1.09600
C118        C  0.92694638  0.39504701  0.47124804     1.09700
C119        C  0.07212534  0.40968950  0.50845723     1.09600
C120        C  0.90564393  0.49462202  0.58315145     1.09600
N121        N  0.48640422  0.77172239  0.21866885    -0.03400
C122        C  0.49449742  0.72496345  0.21307185    -0.00800
C123        C  0.49203090  0.70211037  0.25579858    -0.23700
C124        C  0.48236042  0.73612685  0.28871380    -0.23900
C125        C  0.47889425  0.77849707  0.26487981    -0.00900
H126        H  0.49628160  0.66472417  0.26223395     0.12900
H127        H  0.47876831  0.73065659  0.32599956     0.12900
N128        N  0.51500978  0.21173370  0.23282003    -0.03400
C129        C  0.52865127  0.25680833  0.23174557    -0.00800
C130        C  0.54858157  0.26872667  0.27364694    -0.23700
C131        C  0.54756120  0.22940007  0.30159630    -0.23900
C132        C  0.52714582  0.19503873  0.27557582    -0.00900
H133        H  0.56109037  0.30275895  0.28322889     0.12900
H134        H  0.55899929  0.22653944  0.33749786     0.12900
N135        N  0.50597697  0.22914383  0.76804202    -0.03400
C136        C  0.51778221  0.21745667  0.72372898    -0.00800
C137        C  0.52460913  0.25714694  0.69694377    -0.23700
C138        C  0.51717861  0.29476204  0.72609461    -0.23900
C139        C  0.50543653  0.27669735  0.76957133    -0.00900
H140        H  0.53353383  0.25854780  0.66015767     0.12900
H141        H  0.52053928  0.33136970  0.71667668     0.12900
N142        N  0.46996407  0.77329603  0.77163701    -0.03400
C143        C  0.46012833  0.77952442  0.72564863    -0.00800
C144        C  0.44511023  0.73841578  0.70645510    -0.23700
C145        C  0.44508509  0.70569727  0.74181366    -0.23900
C146        C  0.46037631  0.72788460  0.78131821    -0.00900
H147        H  0.43761323  0.73226318  0.67007151     0.12900
H148        H  0.43762214  0.66887886  0.73851485     0.12900
N149        N  0.47673194  0.07616811  0.99674664    -0.36500
N150        N  0.48156646  0.00555399  0.92225055    -0.57100
N151        N  0.48038044  0.93145666  0.99220521    -0.36500
N152        N  0.48007738  0.00124613  0.06639931    -0.57100
C153        C  0.48487253  0.10388606  0.95912654     0.27100
C154        C  0.48633860  0.10136951  0.03521694     0.27100
C155        C  0.48952528  0.90557337  0.95348728     0.27100
C156        C  0.48744844  0.90295016  0.02976394     0.27100
C157        C  0.47447806  0.04479470  0.89601569     0.35700
C158        C  0.47709841  0.96864514  0.89336930     0.35700
C159        C  0.47710921  0.03834039  0.09552557     0.35700
C160        C  0.47573427  0.96236411  0.09327252     0.35700
C161        C  0.49817045  0.14772542  0.97392964    -0.21800
C162        C  0.49916072  0.14610375  0.02184123    -0.21800
C163        C  0.50211709  0.85994901  0.96662358    -0.21800
C164        C  0.50058696  0.85820543  0.01458871    -0.21800
C165        C  0.46602794  0.03273312  0.85008520    -0.22800
C166        C  0.46754853  0.98451862  0.84845351    -0.22800
C167        C  0.47138545  0.02295740  0.14118775    -0.22800
C168        C  0.47046773  0.97493346  0.13979249    -0.22800
C169        C  0.48001130  0.09124691  0.91172801    -0.18200
C170        C  0.48335195  0.08563911  0.08217602    -0.18200
C171        C  0.48026518  0.91550826  0.07724520    -0.18200
C172        C  0.48333887  0.92083623  0.90659335    -0.18200
H173        H  0.50669199  0.17779394  0.95246563     0.14700
H174        H  0.50857994  0.17465226  0.04422823     0.14700
H175        H  0.51072915  0.83063727  0.94398000     0.14700
H176        H  0.50784901  0.82714508  0.03567609     0.14700
H177        H  0.46004983  0.05623756  0.82064955     0.13000
H178        H  0.46274479  0.96357854  0.81762668     0.13000
H179        H  0.46904140  0.04404942  0.17240605     0.13000
H180        H  0.46751593  0.95193938  0.16989013     0.13000
H181        H  0.46197903  0.04342322  0.99606232     0.26300
H182        H  0.46481161  0.96482963  0.99298219     0.26300
N183        N  0.22606240  0.76410103  0.55378292    -0.03400
C184        C  0.21308647  0.71925396  0.56229766    -0.00800
C185        C  0.25257210  0.69008232  0.56823426    -0.23700
C186        C  0.29106584  0.71749378  0.56340350    -0.23900
C187        C  0.27418128  0.76269133  0.55425142    -0.00900
H188        H  0.25331159  0.65240176  0.57354338     0.12900
H189        H  0.32766149  0.70536253  0.56428333     0.12900
N190        N  0.76781026  0.22305215  0.46600419    -0.03400
C191        C  0.72163682  0.21537408  0.45782536    -0.00800
C192        C  0.69962150  0.25648479  0.44159238    -0.23700
C193        C  0.73333889  0.29004207  0.43929082    -0.23900
C194        C  0.77481421  0.26840362  0.45419047    -0.00900
H195        H  0.66230382  0.26219091  0.43498993     0.12900
H196        H  0.72784408  0.32659984  0.42957161     0.12900
N197        N  0.22628984  0.23247792  0.55407464    -0.03400
C198        C  0.21528756  0.27717439  0.56734761    -0.00800
C199        C  0.25482377  0.29853054  0.58382639    -0.23700
C200        C  0.29156525  0.26627357  0.58009101    -0.23900
C201        C  0.27359706  0.22662592  0.56032493    -0.00900
H202        H  0.25746607  0.33477321  0.59415807     0.12900
H203        H  0.32813041  0.27218309  0.58811913     0.12900
N204        N  0.78449188  0.78157559  0.50445005    -0.03400
C205        C  0.73719762  0.78894624  0.50131072    -0.00800
C206        C  0.71456209  0.74672354  0.50353658    -0.23700
C207        C  0.74923350  0.71209737  0.50751779    -0.23900
C208        C  0.79167296  0.73450913  0.50797148    -0.00900
H209        H  0.67690750  0.74171379  0.50227292     0.12900
H210        H  0.74418777  0.67463501  0.50912624     0.12900
N211        N  0.93760127  0.00620622  0.49893593    -0.36500
N212        N  0.00860285  0.07820396  0.50069971    -0.57100
N213        N  0.08379095  0.00516029  0.50365259    -0.36500
N214        N  0.01155617  0.93363180  0.50810471    -0.57100
C215        C  0.90898753  0.04500891  0.50217858     0.27100
C216        C  0.91060311  0.96857574  0.50673673     0.27400
C217        C  0.10885512  0.04351774  0.51348281     0.27100
C218        C  0.11059098  0.96681512  0.51611470     0.27100
C219        C  0.96992584  0.10629864  0.49281973     0.35700
C220        C  0.04642653  0.10587032  0.49770414     0.35700
C221        C  0.97415364  0.90559196  0.50455724     0.35700
C222        C  0.05057491  0.90502373  0.50702487     0.35700
C223        C  0.86306750  0.03172821  0.51119819    -0.21800
C224        C  0.86416154  0.98361547  0.51430894    -0.21800
C225        C  0.15256229  0.02918287  0.53105859    -0.21800
C226        C  0.15370094  0.98093525  0.53255431    -0.21800
C227        C  0.98326376  0.15211341  0.48511904    -0.22800
C228        C  0.03161852  0.15185860  0.48830266    -0.22800
C229        C  0.98947443  0.85901116  0.50176672    -0.22800
C230        C  0.03776124  0.85863115  0.50324601    -0.22800
C231        C  0.92250278  0.09194289  0.49492722    -0.18200
C232        C  0.92614812  0.92088235  0.50571147    -0.18200
C233        C  0.09746571  0.91930844  0.51344430    -0.18200
C234        C  0.09378835  0.09119423  0.50705788    -0.18200
H235        H  0.83174972  0.05419351  0.51500017     0.14700
H236        H  0.83402239  0.96216357  0.52116986     0.14700
H237        H  0.18066184  0.05117487  0.54225909     0.14700
H238        H  0.18275212  0.95880191  0.54518570     0.14700
H239        H  0.96048374  0.18271582  0.47867094     0.13000
H240        H  0.05336693  0.18221259  0.48471008     0.13000
H241        H  0.96810480  0.82836753  0.49935879     0.13000
H242        H  0.06077322  0.82754024  0.50229526     0.13000
H243        H  0.97220295  0.00534798  0.48736612     0.26300
H244        H  0.05179590  0.00496490  0.48635506     0.26300
O245        O  0.50846268  0.93766263  0.41185781    -0.80000
O246        O  0.53728434  0.10889916  0.50277698    -0.80100
O247        O  0.44104535  0.04054574  0.41813939    -0.80100
O248        O  0.58588239  0.95404184  0.54772833    -0.80000
O249        O  0.51684227  0.04789369  0.43286162    -0.80100
O250        O  0.57649287  0.94802423  0.47379724    -0.80100
O251        O  0.57894882  0.04337684  0.51313199    -0.80000
O252        O  0.43185375  0.94479166  0.41307510    -0.80100
C253        C  0.46973672  0.93135663  0.39245079     1.09700
C254        C  0.57718423  0.08825686  0.50608765     1.09500
C255        C  0.48214576  0.05341288  0.40561593     1.09700
C256        C  0.60222133  0.94083929  0.50862462     1.09600
O257        O  0.51952766  0.89809599  0.54504839    -0.80000
O258        O  0.44628550  0.09029990  0.49086018    -0.80100
O259        O  0.40076028  0.94204955  0.50843191    -0.80000
O260        O  0.55521760  0.02760598  0.60382216    -0.80000
O261        O  0.49229834  0.06169332  0.57142759    -0.80100
O262        O  0.45133985  0.88802270  0.48148388    -0.80000
O263        O  0.49282959  0.95820193  0.58714928    -0.80000
O264        O  0.40067936  0.03578480  0.51437489    -0.80100
Co265      Co  0.51364237  0.92144843  0.47828105     1.51500
Co266      Co  0.50559075  0.05136525  0.50015550     1.51700
Co267      Co  0.42221573  0.99112047  0.46600843     1.51600
Co268      Co  0.53070220  0.00088645  0.54897036     1.51500
O269        O  0.48736106  0.98478367  0.49574185    -1.42000
C270        C  0.50181613  0.91458586  0.58290199     1.09600
C271        C  0.40732715  0.07857516  0.50828187     1.09700
C272        C  0.41225525  0.89947116  0.50164117     1.09600
C273        C  0.52156622  0.05806654  0.60586024     1.09600
C274        C  0.71370417  0.86691624  0.53414865    -0.09100
C275        C  0.71179634  0.83475148  0.49743789     0.07100
C276        C  0.67934257  0.84300431  0.46119877    -0.02800
C277        C  0.64713839  0.88073357  0.46390114    -0.07300
C278        C  0.64503002  0.90998845  0.50322913     0.06300
C279        C  0.68030811  0.90431094  0.53752691    -0.02300
Br280      Br  0.68371904  0.94512361  0.59013517    -0.02000
H281        H  0.73894403  0.86100700  0.56196481     0.10200
H282        H  0.62118861  0.88471968  0.43645230     0.08200
Br283      Br  0.67468463  0.80188986  0.40870092    -0.02400
C284        C  0.84424268  0.82513626  0.54562829    -0.09100
C285        C  0.81998971  0.81641399  0.50433382     0.07100
C286        C  0.83070299  0.84206573  0.46360828    -0.02800
C287        C  0.86514748  0.87605620  0.46471103    -0.07300
C288        C  0.88955668  0.88465163  0.50599927     0.06300
C289        C  0.87888834  0.85891189  0.54673283    -0.02300
Br290      Br  0.91023551  0.86931432  0.60460028    -0.02000
H291        H  0.83567264  0.80596614  0.57719824     0.10200
H292        H  0.87327444  0.89560747  0.43319390     0.08200
Br293      Br  0.80066343  0.83050023  0.40545277    -0.02400
C294        C  0.29672151  0.14136952  0.55809444    -0.09100
C295        C  0.30412768  0.18741457  0.54297410     0.07100
C296        C  0.34346054  0.19646695  0.51416145    -0.02800
C297        C  0.37595771  0.16042495  0.50337071    -0.07300
C298        C  0.37005195  0.11450759  0.51990657     0.06300
C299        C  0.32888668  0.10476195  0.54649441    -0.02300
Br300      Br  0.31455187  0.04337720  0.57003239    -0.02000
H301        H  0.26653620  0.13407027  0.58013113     0.10200
H302        H  0.40613717  0.16860160  0.48166909     0.08200
Br303      Br  0.35437935  0.25715163  0.48701891    -0.02400
C304        C  0.12338675  0.15253707  0.55925250    -0.09100
C305        C  0.12821968  0.12831612  0.51711485     0.07100
C306        C  0.16635464  0.13833132  0.48703909    -0.02800
C307        C  0.19826276  0.17288808  0.49914728    -0.07300
C308        C  0.19313655  0.19732283  0.54140467     0.06300
C309        C  0.15550494  0.18621724  0.57175457    -0.02300
Br310      Br  0.14822013  0.21275387  0.63267661    -0.02000
H311        H  0.09494642  0.14427445  0.58316115     0.10200
H312        H  0.22714752  0.18069498  0.47566570     0.08200
Br313      Br  0.17611202  0.10550586  0.42948356    -0.02400
C314        C  0.65547008  0.10159592  0.46780591    -0.09100
C315        C  0.62024784  0.11559960  0.50011663     0.07100
C316        C  0.62420593  0.15868672  0.52323812    -0.02800
C317        C  0.66119596  0.18788874  0.51220537    -0.07300
C318        C  0.69395947  0.17623657  0.47692367     0.06300
C319        C  0.69179103  0.13198130  0.45541642    -0.02300
Br320      Br  0.73384086  0.11340988  0.40578466    -0.02000
H321        H  0.65276047  0.06860237  0.44968482     0.10200
H322        H  0.66237189  0.22176237  0.52899530     0.08200
Br323      Br  0.57860295  0.18117373  0.56839001    -0.02400
C324        C  0.83063811  0.17100081  0.43623088    -0.09100
C325        C  0.80488128  0.18865869  0.47445658     0.07100
C326        C  0.81881139  0.17603886  0.51990870    -0.02800
C327        C  0.85832258  0.14577620  0.52649774    -0.07300
C328        C  0.88389719  0.12782084  0.48791876     0.06300
C329        C  0.86977182  0.14078594  0.44252926    -0.02300
Br330      Br  0.90235739  0.11756432  0.38806456    -0.02000
H331        H  0.81981772  0.18063890  0.40121580     0.10200
H332        H  0.86859199  0.13545002  0.56156063     0.08200
Br333      Br  0.78446262  0.19931359  0.57314773    -0.02400
C334        C  0.34398872  0.87466860  0.55035975    -0.09100
C335        C  0.37763221  0.86366145  0.51519401     0.07100
C336        C  0.37519289  0.82011621  0.49239613    -0.02800
C337        C  0.33953604  0.78948060  0.50441504    -0.07300
C338        C  0.30622414  0.80031503  0.53960073     0.06300
C339        C  0.30898159  0.84328448  0.56311630    -0.02300
Br340      Br  0.26910520  0.85941826  0.61532243    -0.02000
H341        H  0.34548936  0.90757493  0.56885793     0.10200
H342        H  0.33828050  0.75621677  0.48650745     0.08200
Br343      Br  0.41830755  0.79977962  0.44402424    -0.02400
C344        C  0.13032193  0.85763135  0.56677544    -0.09100
C345        C  0.13365317  0.88167581  0.52406497     0.07100
C346        C  0.16898705  0.86766741  0.49170383    -0.02800
C347        C  0.19954028  0.82929371  0.50211035    -0.07300
C348        C  0.19508941  0.80420793  0.54429536     0.06300
C349        C  0.16031229  0.81913881  0.57696535    -0.02300
Br350      Br  0.15342990  0.79022320  0.63713052    -0.02000
H351        H  0.10353400  0.86849826  0.59203098     0.10200
H352        H  0.22618431  0.81826142  0.47683360     0.08200
Br353      Br  0.17544203  0.89856934  0.43236854    -0.02400
C354        C  0.45365071  0.88972691  0.65133504    -0.09100
C355        C  0.49400054  0.88271201  0.62299561     0.07100
C356        C  0.52556609  0.84454214  0.63292976    -0.02800
C357        C  0.51533318  0.81341673  0.66924040    -0.07300
C358        C  0.47409399  0.81931411  0.69613712     0.06300
C359        C  0.44321010  0.85791439  0.68728412    -0.02300
Br360      Br  0.38468694  0.86610743  0.72066839    -0.02000
H361        H  0.42901146  0.91873341  0.64406580     0.10200
H362        H  0.53882472  0.78320492  0.67538078     0.08200
Br363      Br  0.58344103  0.83285636  0.59881068    -0.02400
C364        C  0.43471828  0.82570725  0.83040681    -0.09100
C365        C  0.47480189  0.81006008  0.80530738     0.07100
C366        C  0.51804628  0.83163274  0.81272548    -0.02800
C367        C  0.52053551  0.86844659  0.84495686    -0.07300
C368        C  0.48016161  0.88400216  0.87006343     0.06300
C369        C  0.43705972  0.86234776  0.86234977    -0.02300
Br370      Br  0.38045080  0.88196129  0.89485460    -0.02000
H371        H  0.40129959  0.80943803  0.82466934     0.10200
H372        H  0.55405148  0.88441680  0.85103157     0.08200
Br373      Br  0.57444275  0.81036409  0.78109839    -0.02400
C374        C  0.47551046  0.15210840  0.68932460    -0.09100
C375        C  0.51821186  0.16988641  0.70423233     0.07100
C376        C  0.56089507  0.14626550  0.69249474    -0.02800
C377        C  0.56051349  0.10653196  0.66429852    -0.07300
C378        C  0.51814728  0.09127596  0.64530497     0.06300
C379        C  0.47511100  0.11353572  0.65947112    -0.02300
Br380      Br  0.41485988  0.09453613  0.63820066    -0.02000
H381        H  0.44252545  0.17036154  0.69821946     0.10200
H382        H  0.59397537  0.09030562  0.65365945     0.08200
Br383      Br  0.62073757  0.16997216  0.70986367    -0.02400
C384        C  0.53791292  0.17105274  0.82364949    -0.09100
C385        C  0.49891476  0.19663819  0.80582405     0.07100
C386        C  0.45351736  0.18850055  0.82367258    -0.02800
C387        C  0.44754537  0.15424770  0.85844657    -0.07300
C388        C  0.48664782  0.12827710  0.87580049     0.06300
C389        C  0.53215571  0.13742646  0.85878128    -0.02300
Br390      Br  0.58726706  0.10505633  0.88310449    -0.02000
H391        H  0.57291482  0.17756633  0.81019340     0.10200
H392        H  0.41246433  0.14750250  0.87163963     0.08200
Br393      Br  0.39904470  0.22217238  0.80005113    -0.02400
C394        C  0.46679958  0.14281517  0.30735908    -0.09100
C395        C  0.51421160  0.14949380  0.29565324     0.07100
C396        C  0.54918405  0.11838995  0.31338066    -0.02800
C397        C  0.53693324  0.08371835  0.34554980    -0.07300
C398        C  0.49004864  0.08016736  0.36167722     0.06300
C399        C  0.45432927  0.10875099  0.34038572    -0.02300
Br400      Br  0.38907710  0.10864906  0.35913005    -0.02000
H401        H  0.43981460  0.16730177  0.29449795     0.10200
H402        H  0.56492128  0.06174197  0.36062018     0.08200
Br403      Br  0.61467360  0.12493807  0.29789610    -0.02400
C404        C  0.54441187  0.15955766  0.17139967    -0.09100
C405        C  0.50607754  0.18304439  0.19308515     0.07100
C406        C  0.46005501  0.17582400  0.17722382    -0.02800
C407        C  0.45294550  0.14426640  0.14081825    -0.07300
C408        C  0.49143013  0.12010045  0.11975947     0.06300
C409        C  0.53748256  0.12842130  0.13494756    -0.02300
Br410      Br  0.59186545  0.09764322  0.10718475    -0.02000
H411        H  0.57986691  0.16516124  0.18350741     0.10200
H412        H  0.41742242  0.13827529  0.12911257     0.08200
Br413      Br  0.40638442  0.20807030  0.20434673    -0.02400
C414        C  0.51097305  0.85347948  0.29190581    -0.09100
C415        C  0.47239076  0.82437002  0.28819650     0.07100
C416        C  0.43045641  0.83599671  0.31263507    -0.02800
C417        C  0.42865246  0.87432877  0.34293577    -0.07300
C418        C  0.46877069  0.90096387  0.35044243     0.06300
C419        C  0.50962390  0.89148543  0.32268539    -0.02300
Br420      Br  0.56549486  0.92768074  0.32611180    -0.02000
H421        H  0.54329895  0.84495598  0.27288470     0.10200
H422        H  0.39679299  0.88092780  0.36332278     0.08200
Br423      Br  0.37566001  0.79871845  0.30752125    -0.02400
C424        C  0.52418870  0.85561100  0.12531945    -0.09100
C425        C  0.48087913  0.87735418  0.11301999     0.07100
C426        C  0.43930012  0.86418337  0.13637884    -0.02800
C427        C  0.44163913  0.82942140  0.17120575    -0.07300
C428        C  0.48489597  0.80718911  0.18277498     0.06300
C429        C  0.52635466  0.82059164  0.15973778    -0.02300
Br430      Br  0.58687801  0.79384680  0.17600011    -0.02000
H431        H  0.55642120  0.86621702  0.10822510     0.10200
H432        H  0.40973127  0.81947328  0.18928717     0.08200
Br433      Br  0.37896397  0.89332883  0.12239820    -0.02400
C434        C  0.88775925  0.33117609  0.42987608    -0.09100
C435        C  0.89256348  0.35685996  0.47118925     0.07100
C436        C  0.86180211  0.34783691  0.50901797    -0.02800
C437        C  0.82536503  0.31629488  0.50380144    -0.07300
C438        C  0.81875025  0.29361714  0.46126117     0.06300
C439        C  0.85079485  0.30053323  0.42440683    -0.02300
Br440      Br  0.84338380  0.27206206  0.36467750    -0.02000
H441        H  0.91120092  0.33689138  0.40051408     0.10200
H442        H  0.80090217  0.31086860  0.53247671     0.08200
Br443      Br  0.86789526  0.37653892  0.56866069    -0.02400
C444        C  0.88972784  0.65102133  0.47110014    -0.09100
C445        C  0.91194153  0.64114231  0.51401542     0.07100
C446        C  0.89968199  0.66958025  0.55297398    -0.02800
C447        C  0.86257807  0.70312650  0.54932384    -0.07300
C448        C  0.83764499  0.70909487  0.50759576     0.06300
C449        C  0.85228584  0.68376022  0.46796691    -0.02300
Br450      Br  0.81882979  0.68858403  0.41002922    -0.02000
H451        H  0.89844929  0.63033133  0.44049934     0.10200
H452        H  0.85097907  0.72211329  0.58014586     0.08200
Br453      Br  0.92871982  0.66253098  0.61318901    -0.02400
C454        C  0.11487106  0.36754549  0.57157121    -0.09100
C455        C  0.10248126  0.37019047  0.52447199     0.07100
C456        C  0.12261446  0.33764638  0.49289674    -0.02800
C457        C  0.15661314  0.30445375  0.50844658    -0.07300
C458        C  0.17163699  0.30409821  0.55507705     0.06300
C459        C  0.14970625  0.33541478  0.58702528    -0.02300
Br460      Br  0.16703308  0.33705582  0.65170078    -0.02000
H461        H  0.09884494  0.39189461  0.59601804     0.10200
H462        H  0.17358041  0.28104714  0.48337073     0.08200
Br463      Br  0.10614082  0.33881071  0.42805832    -0.02400
C464        C  0.11210554  0.64125495  0.58925419    -0.09100
C465        C  0.08918915  0.64027695  0.54595151     0.07100
C466        C  0.10081152  0.67404566  0.51163647    -0.02800
C467        C  0.13859431  0.70389740  0.51911234    -0.07300
C468        C  0.16494229  0.70045813  0.56047801     0.06300
C469        C  0.14973011  0.67044176  0.59652002    -0.02300
Br470      Br  0.18157291  0.66495657  0.65544243    -0.02000
H471        H  0.10344576  0.61644297  0.61665615     0.10200
H472        H  0.14946883  0.72727356  0.49128998     0.08200
Br473      Br  0.06696187  0.68017889  0.45405267    -0.02400
C474        C  0.79936559  0.52338109  0.66085048    -0.09100
C475        C  0.80226240  0.48653392  0.69352290     0.07100
C476        C  0.84064310  0.45403692  0.69132645    -0.02800
C477        C  0.87477463  0.45833037  0.65610624    -0.07300
C478        C  0.87011289  0.49329250  0.62127550     0.06300
C479        C  0.83248053  0.52693158  0.62477081    -0.02300
Br480      Br  0.82371275  0.57891807  0.58227848    -0.02000
H481        H  0.76977277  0.54847006  0.66222907     0.10200
H482        H  0.90383162  0.43266439  0.65457962     0.08200
Br483      Br  0.84561695  0.40042054  0.73189712    -0.02400
C484        C  0.81534677  0.53511942  0.80387487    -0.09100
C485        C  0.79135550  0.49282807  0.80279238     0.07100
C486        C  0.80136421  0.45803060  0.83690228    -0.02800
C487        C  0.83384735  0.46608846  0.87192183    -0.07300
C488        C  0.85746416  0.50833371  0.87349067     0.06300
C489        C  0.84844157  0.54300650  0.83895788    -0.02300
Br490      Br  0.88053548  0.60117283  0.83879399    -0.02000
H491        H  0.80790550  0.56202560  0.77775717     0.10200
H492        H  0.84170436  0.43872224  0.89750220     0.08200
Br493      Br  0.77405913  0.39747234  0.83550129    -0.02400
C494        C  0.16281529  0.50626836  0.62815309    -0.09100
C495        C  0.12032852  0.48241964  0.63148633     0.07100
C496        C  0.11124056  0.45595656  0.67264502    -0.02800
C497        C  0.14543128  0.45229570  0.70775127    -0.07300
C498        C  0.18812915  0.47552149  0.70350515     0.06300
C499        C  0.19597760  0.50371304  0.66369934    -0.02300
Br500      Br  0.25023918  0.54192374  0.65660205    -0.02000
H501        H  0.17011228  0.52828458  0.59808130     0.10200
H502        H  0.13906165  0.43001573  0.73775265     0.08200
Br503      Br  0.05412285  0.42276218  0.68350804    -0.02400
C504        C  0.12137589  0.44558788  0.86456321    -0.09100
C505        C  0.10351671  0.49116890  0.87275203     0.07100
C506        C  0.12335131  0.52944298  0.84927384    -0.02800
C507        C  0.16218593  0.52182800  0.81938023    -0.07300
C508        C  0.18108247  0.47628382  0.81251628     0.06300
C509        C  0.15963378  0.43795756  0.83436184    -0.02300
Br510      Br  0.18053673  0.37457816  0.82273266    -0.02000
H511        H  0.10579987  0.41599156  0.88219037     0.10200
H512        H  0.17832985  0.55134928  0.80224357     0.08200
Br513      Br  0.09905445  0.59232263  0.85853038    -0.02400
C514        C  0.85053620  0.46256942  0.29871194    -0.09100
C515        C  0.81317289  0.49601287  0.29610211     0.07100
C516        C  0.81366760  0.53533388  0.32546088    -0.02800
C517        C  0.84666058  0.53708570  0.36140049    -0.07300
C518        C  0.88085810  0.50079026  0.36782100     0.06300
C519        C  0.88486735  0.46513731  0.33373850    -0.02300
Br520      Br  0.93302200  0.41631596  0.33566738    -0.02000
H521        H  0.85092611  0.43241599  0.27593240     0.10200
H522        H  0.84401782  0.56581174  0.38591627     0.08200
Br523      Br  0.76781150  0.58608802  0.31938144    -0.02400
C524        C  0.81559266  0.52692696  0.18301998    -0.09100
C525        C  0.79393429  0.48374592  0.18930177     0.07100
C526        C  0.80415156  0.44710982  0.15766908    -0.02800
C527        C  0.83539270  0.45413038  0.12040664    -0.07300
C528        C  0.85717401  0.49721113  0.11432717     0.06300
C529        C  0.84706885  0.53382490  0.14585294    -0.02300
Br530      Br  0.87596562  0.59341729  0.13944352    -0.02000
H531        H  0.80764391  0.55534757  0.20695863     0.10200
H532        H  0.84388956  0.42546609  0.09687197     0.08200
Br533      Br  0.77906217  0.38592164  0.16581255    -0.02400
C534        C  0.07699911  0.43560853  0.33069932    -0.09100
C535        C  0.07974383  0.47692837  0.35709289     0.07100
C536        C  0.11325643  0.51040732  0.34370089    -0.02800
C537        C  0.14697809  0.49894478  0.30958928    -0.07300
C538        C  0.14696547  0.45572626  0.28697713     0.06300
C539        C  0.11017137  0.42506483  0.29557547    -0.02300
Br540      Br  0.10630937  0.36703486  0.26272955    -0.02000
H541        H  0.05078366  0.41002386  0.33923058     0.10200
H542        H  0.17550250  0.52257585  0.30311250     0.08200
Br543      Br  0.11910569  0.57041299  0.37282649    -0.02400
C544        C  0.11924930  0.51605165  0.13836812    -0.09100
C545        C  0.10260678  0.47902653  0.11196471     0.07100
C546        C  0.12092887  0.43312240  0.11945706    -0.02800
C547        C  0.15444093  0.42461249  0.15416662    -0.07300
C548        C  0.17017329  0.46133951  0.18151793     0.06300
C549        C  0.15309035  0.50752423  0.17292501    -0.02300
Br550      Br  0.17521418  0.55995356  0.20651671    -0.02000
H551        H  0.10575691  0.55156172  0.13208363     0.10200
H552        H  0.16785299  0.38910517  0.16054362     0.08200
Br553      Br  0.10043971  0.38113887  0.08370372    -0.02400
C554        C  0.47912405  0.36478509  0.17112049    -0.09100
C555        C  0.50796281  0.36703225  0.13116331     0.07100
C556        C  0.54171739  0.33005536  0.12274652    -0.02800
C557        C  0.54633164  0.29266447  0.15462585    -0.07300
C558        C  0.51797656  0.29142227  0.19475744     0.06300
C559        C  0.48395464  0.32754588  0.20273021    -0.02300
Br560      Br  0.44346919  0.32783529  0.25680251    -0.02000
H561        H  0.45235453  0.39198816  0.17783938     0.10200
H562        H  0.57334663  0.26542456  0.14902375     0.08200
Br563      Br  0.58503210  0.32954563  0.07072772    -0.02400
C564        C  0.46382305  0.70030810  0.13634974    -0.09100
C565        C  0.50115986  0.70028943  0.16812823     0.07100
C566        C  0.54132471  0.67093556  0.15991775    -0.02800
C567        C  0.54296695  0.64117504  0.12139411    -0.07300
C568        C  0.50400363  0.63800213  0.09180741     0.06300
C569        C  0.46446976  0.66882256  0.09899500    -0.02300
Br570      Br  0.40917472  0.66777518  0.06107259    -0.02000
H571        H  0.43254787  0.72236824  0.14259132     0.10200
H572        H  0.57330345  0.61741850  0.11708168     0.08200
Br573      Br  0.59356953  0.66735724  0.20214383    -0.02400
C574        C  0.51858442  0.63233580  0.85259019    -0.09100
C575        C  0.48419766  0.62544549  0.88713405     0.07100
C576        C  0.44671763  0.65876347  0.89209117    -0.02800
C577        C  0.44187377  0.69618346  0.86009876    -0.07300
C578        C  0.47444031  0.70095946  0.82341180     0.06300
C579        C  0.51413894  0.66988388  0.82105048    -0.02300
Br580      Br  0.56063449  0.67453221  0.77222765    -0.02000
H581        H  0.54778389  0.60706602  0.84866710     0.10200
H582        H  0.41080025  0.71934626  0.86174548     0.08200
Br583      Br  0.39888535  0.65183999  0.93868561    -0.02400
C584        C  0.64771278  0.54779709  0.87683920    -0.09100
C585        C  0.62761297  0.51074624  0.90166853     0.07100
C586        C  0.63956595  0.46415163  0.88932247    -0.02800
C587        C  0.66698793  0.45515527  0.84962902    -0.07300
C588        C  0.68532144  0.49209473  0.82346448     0.06300
C589        C  0.67655115  0.53872856  0.83783796    -0.02300
Br590      Br  0.69828125  0.59111782  0.80214305    -0.02000
H591        H  0.63846627  0.58381429  0.88583930     0.10200
H592        H  0.67318547  0.41920246  0.83866604     0.08200
Br593      Br  0.62053715  0.41176004  0.92637407    -0.02400
C594        C  0.46787431  0.38012327  0.84380436    -0.09100
C595        C  0.49512599  0.37266570  0.88415316     0.07100
C596        C  0.52026663  0.32900878  0.88941396    -0.02800
C597        C  0.52189295  0.29700357  0.85247149    -0.07300
C598        C  0.49682917  0.30628437  0.81120066     0.06300
C599        C  0.46770890  0.34718709  0.80822974    -0.02300
Br600      Br  0.42518551  0.35925754  0.75730299    -0.02000
H601        H  0.44577803  0.41166759  0.83987098     0.10200
H602        H  0.54398878  0.26543075  0.85562822     0.08200
Br603      Br  0.55260709  0.30953539  0.94531727    -0.02400
C604        C  0.33717038  0.42361434  0.90563260    -0.09100
C605        C  0.34401393  0.46750549  0.92619780     0.07100
C606        C  0.31336102  0.50550898  0.91362838    -0.02800
C607        C  0.28303520  0.50120973  0.87529687    -0.07300
C608        C  0.28231625  0.45893623  0.85036564     0.06300
C609        C  0.30706400  0.41919597  0.86805759    -0.02300
Br610      Br  0.30562887  0.35886549  0.83887325    -0.02000
H611        H  0.35851346  0.39298226  0.91570638     0.10200
H612        H  0.26282981  0.53174290  0.86295981     0.08200
Br613      Br  0.31103482  0.56285191  0.94796953    -0.02400
C614        C  0.28261042  0.41404204  0.13676441    -0.09100
C615        C  0.27743503  0.44693544  0.17261624     0.07100
C616        C  0.30351477  0.48791946  0.17124742    -0.02800
C617        C  0.33617001  0.49443433  0.13552347    -0.07300
C618        C  0.34428466  0.45999898  0.10131878     0.06300
C619        C  0.31574233  0.42037400  0.10092448    -0.02300
Br620      Br  0.32020735  0.37430163  0.05249072    -0.02000
H621        H  0.26196745  0.38273021  0.13749782     0.10200
H622        H  0.35759850  0.52518182  0.13657601     0.08200
Br623      Br  0.29898487  0.53417983  0.21949052    -0.02400
C624        C  0.61687550  0.44140843  0.13883857    -0.09100
C625        C  0.61812638  0.48037447  0.10882731     0.07100
C626        C  0.65593337  0.51094156  0.11185785    -0.02800
C627        C  0.68942281  0.50447889  0.14730806    -0.07300
C628        C  0.68639195  0.46707211  0.17943079     0.06300
C629        C  0.65102775  0.43396200  0.17328305    -0.02300
Br630      Br  0.64725852  0.37809156  0.21106432    -0.02000
H631        H  0.58846730  0.41737042  0.13647362     0.10200
H632        H  0.71593543  0.53053459  0.15147492     0.08200
Br633      Br  0.66094961  0.56413916  0.07086934    -0.02400
loop_ 
_geom_bond_atom_site_label_1 
_geom_bond_atom_site_label_2 
_geom_bond_distance 
_geom_bond_site_symmetry_2 
_ccdc_geom_bond_type 
O1            C9   1.256       .  A
O1          Co21   1.977       .  S
O2           C10   1.275       .  A
O2          Co22   1.994       .  S
O3           C11   1.297       .  A
O3          Co23   2.115       .  S
O4           C12   1.272       .  A
O4          Co24   2.020       .  S
O5           C11   1.266       .  A
O5          Co22   1.887       .  S
O6           C12   1.259       .  A
O6          Co21   1.953       .  S
O7           C10   1.274       .  A
O7          Co24   1.995   1_556  S
O8            C9   1.266       .  A
O8          Co23   2.013   1_554  S
C9          C568   1.482       .  S
C10         C605   1.488       .  S
C11         C575   1.472       .  S
C12         C618   1.472       .  S
O13          C26   1.277       .  A
O13         Co21   2.032       .  S
O14          C27   1.297       .  A
O14         Co22   2.104       .  S
O15          C28   1.269       .  A
O15         Co23   1.977   1_554  S
O16          C29   1.258       .  A
O16         Co24   1.973   1_556  S
O17          C29   1.267       .  A
O17         Co22   2.003       .  S
O18          C28   1.278       .  A
O18         Co21   2.025       .  S
O19          C26   1.255       .  A
O19         Co24   1.944       .  S
O20          C27   1.269       .  A
O20         Co23   1.895       .  S
Co21         O25   2.010       .  S
Co22         O25   1.978   1_556  S
Co23         O25   2.012   1_556  S
Co24         O25   2.029       .  S
C26         C555   1.479       .  S
C27         C585   1.467       .  S
C28         C625   1.474       .  S
C29         C595   1.488       .  S
N30          C34   1.349       .  A
N30          C31   1.349       .  A
N30         C548   1.433       .  S
C31         C615   1.463       .  S
C31          C32   1.381       .  A
C32          C33   1.376       .  A
C32          H35   1.082       .  S
C33          C34   1.382       .  A
C33          H36   1.082       .  S
C34         C538   1.467       .  S
N37          C41   1.359       .  A
N37          C38   1.361       .  A
N37         C525   1.439       .  S
C38         C628   1.487       .  S
C38          C39   1.383       .  A
C39          C40   1.372       .  A
C39          H42   1.082       .  S
C40          C41   1.381       .  A
C40          H43   1.082       .  S
C41         C515   1.484       .  S
N44          C48   1.354       .  A
N44          C45   1.357       .  A
N44         C508   1.435       .  S
C45         C498   1.480       .  S
C45          C46   1.383       .  A
C46          C47   1.370       .  A
C46          H49   1.082       .  S
C47          C48   1.381       .  A
C47          H50   1.082       .  S
C48         C608   1.477       .  S
N51          C55   1.353       .  A
N51          C52   1.355       .  A
N51         C485   1.439       .  S
C52         C475   1.473       .  S
C52          C53   1.383       .  A
C53          C54   1.374       .  A
C53          H56   1.082       .  S
C54          C55   1.379       .  A
C54          H57   1.082       .  S
C55         C588   1.470       .  S
N58          C63   1.353   1_655  A
N58          C62   1.352       .  A
N58          H90   1.042       .  S
N59          C66   1.351       .  A
N59          C67   1.352   1_556  A
N60          C65   1.354   1_655  A
N60          C64   1.353       .  A
N60          H91   1.035       .  S
N61          C68   1.348       .  A
N61          C69   1.349   1_556  A
C62          C70   1.388       .  A
C62          C78   1.414       .  A
C63          C79   1.411       .  A
C63          C71   1.386       .  A
C64          C72   1.388       .  A
C64          C81   1.415       .  A
C65          C80   1.413       .  A
C65          C73   1.386       .  A
C66          C78   1.414       .  A
C66          C74   1.386       .  A
C67          C81   1.414       .  A
C67          C75   1.386       .  A
C68          C76   1.387       .  A
C68          C79   1.409       .  A
C69          C77   1.386       .  A
C69          C80   1.408       .  A
C70          C71   1.374   1_655  A
C70          H82   1.082       .  S
C71          H83   1.082       .  S
C72          C73   1.374   1_655  A
C72          H84   1.082       .  S
C73          H85   1.083       .  S
C74          C75   1.376   1_556  A
C74          H86   1.083       .  S
C75          H87   1.083       .  S
C76          C77   1.371   1_556  A
C76          H88   1.083       .  S
C77          H89   1.083       .  S
C78         C488   1.485       .  S
C79         C505   1.478       .  S
C80         C545   1.479       .  S
C81         C528   1.484       .  S
O92         C100   1.259       .  A
O92        Co112   1.979       .  S
O93         C101   1.269       .  A
O93        Co113   1.964       .  S
O94         C102   1.298       .  A
O94        Co114   2.127       .  S
O95         C103   1.272       .  A
O95        Co115   2.008   1_455  S
O96         C102   1.265       .  A
O96        Co113   1.888       .  S
O97         C103   1.267       .  A
O97        Co112   1.984       .  S
O98         C101   1.276       .  A
O98        Co115   2.022       .  S
O99         C100   1.264       .  A
O99        Co114   1.997   1_455  S
C100        C535   1.483       .  S
C101        C445   1.485       .  S
C102        C518   1.490       .  S
C103        C465   1.488       .  S
O104        C117   1.276       .  A
O104       Co112   2.019       .  S
O105        C118   1.300       .  A
O105       Co113   2.126       .  S
O106        C119   1.267       .  A
O106       Co114   1.967   1_455  S
O107        C120   1.256       .  A
O107       Co115   1.965       .  S
O108        C120   1.265       .  A
O108       Co113   2.011       .  S
O109        C119   1.278       .  A
O109       Co112   2.027       .  S
O110        C117   1.261       .  A
O110       Co115   1.962   1_455  S
O111        C118   1.264       .  A
O111       Co114   1.882       .  S
Co112       O116   2.020       .  S
Co113       O116   1.987   1_655  S
Co114       O116   2.002   1_655  S
Co115       O116   2.029   1_655  S
C117        C495   1.486       .  S
C118        C435   1.485       .  S
C119        C455   1.466       .  S
C120        C478   1.480       .  S
N121        C125   1.353       .  A
N121        C122   1.355       .  A
N121        C428   1.434       .  S
C122        C565   1.480       .  S
C122        C123   1.383       .  A
C123        C124   1.378       .  A
C123        H126   1.082       .  S
C124        C125   1.382       .  A
C124        H127   1.082       .  S
C125        C415   1.479       .  S
N128        C132   1.352       .  A
N128        C129   1.354       .  A
N128        C405   1.437       .  S
C129        C558   1.467       .  S
C129        C130   1.381       .  A
C130        C131   1.372       .  A
C130        H133   1.082       .  S
C131        C132   1.381       .  A
C131        H134   1.082       .  S
C132        C395   1.471       .  S
N135        C139   1.356       .  A
N135        C136   1.352       .  A
N135        C385   1.435       .  S
C136        C375   1.471       .  S
C136        C137   1.379       .  A
C137        C138   1.374       .  A
C137        H140   1.082       .  S
C138        C139   1.385       .  A
C138        H141   1.082       .  S
C139        C598   1.481       .  S
N142        C146   1.357       .  A
N142        C143   1.357       .  A
N142        C365   1.441       .  S
C143        C358   1.471       .  S
C143        C144   1.380       .  A
C144        C145   1.370       .  A
C144        H147   1.082       .  S
C145        C146   1.381       .  A
C145        H148   1.082       .  S
C146        C578   1.473       .  S
N149        C154   1.355   1_556  A
N149        C153   1.353       .  A
N149        H181   1.036       .  S
N150        C157   1.351       .  A
N150        C158   1.354   1_545  A
N151        C156   1.354   1_556  A
N151        C155   1.356       .  A
N151        H182   1.035       .  S
N152        C159   1.353       .  A
N152        C160   1.351   1_545  A
C153        C161   1.388       .  A
C153        C169   1.417       .  A
C154        C170   1.416       .  A
C154        C162   1.387       .  A
C155        C163   1.386       .  A
C155        C172   1.418       .  A
C156        C171   1.421       .  A
C156        C164   1.389       .  A
C157        C169   1.416       .  A
C157        C165   1.388       .  A
C158        C172   1.416       .  A
C158        C166   1.385       .  A
C159        C167   1.385       .  A
C159        C170   1.414       .  A
C160        C168   1.389       .  A
C160        C171   1.417       .  A
C161        C162   1.373   1_556  A
C161        H173   1.082       .  S
C162        H174   1.082       .  S
C163        C164   1.375   1_556  A
C163        H175   1.082       .  S
C164        H176   1.082       .  S
C165        C166   1.374   1_545  A
C165        H177   1.082       .  S
C166        H178   1.082       .  S
C167        C168   1.370   1_545  A
C167        H179   1.082       .  S
C168        H180   1.082       .  S
C169        C388   1.482       .  S
C170        C408   1.488       .  S
C171        C425   1.486       .  S
C172        C368   1.494       .  S
N183        C187   1.363       .  A
N183        C184   1.361       .  A
N183        C348   1.442       .  S
C184        C468   1.484       .  S
C184        C185   1.382       .  A
C185        C186   1.368       .  A
C185        H188   1.082       .  S
C186        C187   1.382       .  A
C186        H189   1.082       .  S
C187        C338   1.484       .  S
N190        C194   1.353       .  A
N190        C191   1.357       .  A
N190        C325   1.433       .  S
C191        C318   1.483       .  S
C191        C192   1.386       .  A
C192        C193   1.375       .  A
C192        H195   1.082       .  S
C193        C194   1.378       .  A
C193        H196   1.082       .  S
C194        C438   1.475       .  S
N197        C201   1.358       .  A
N197        C198   1.358       .  A
N197        C308   1.447       .  S
C198        C458   1.476       .  S
C198        C199   1.382       .  A
C199        C200   1.369       .  A
C199        H202   1.082       .  S
C200        C201   1.383       .  A
C200        H203   1.082       .  S
C201        C295   1.477       .  S
N204        C208   1.353       .  A
N204        C205   1.353       .  A
N204        C285   1.437       .  S
C205        C275   1.473       .  S
C205        C206   1.383       .  A
C206        C207   1.373       .  A
C206        H209   1.082       .  S
C207        C208   1.381       .  A
C207        H210   1.082       .  S
C208        C448   1.469       .  S
N211        C216   1.354   1_545  A
N211        C215   1.352       .  A
N211        H243   1.032       .  S
N212        C219   1.354   1_455  A
N212        C220   1.354       .  A
N213        C218   1.356   1_545  A
N213        C217   1.357       .  A
N213        H244   1.037       .  S
N214        C221   1.354   1_455  A
N214        C222   1.352       .  A
C215        C223   1.389       .  A
C215        C231   1.416       .  A
C216        C232   1.415       .  A
C216        C224   1.386       .  A
C217        C225   1.388       .  A
C217        C234   1.421       .  A
C218        C233   1.419       .  A
C218        C226   1.387       .  A
C219        C231   1.419       .  A
C219        C227   1.386       .  A
C220        C234   1.419       .  A
C220        C228   1.387       .  A
C221        C229   1.385       .  A
C221        C232   1.415       .  A
C222        C230   1.388       .  A
C222        C233   1.417       .  A
C223        C224   1.372   1_545  A
C223        H235   1.082       .  S
C224        H236   1.083       .  S
C225        C226   1.374   1_545  A
C225        H237   1.082       .  S
C226        H238   1.082       .  S
C227        C228   1.374   1_655  A
C227        H239   1.083       .  S
C228        H240   1.083       .  S
C229        C230   1.369   1_655  A
C229        H241   1.082       .  S
C230        H242   1.082       .  S
C231        C328   1.485       .  S
C232        C288   1.488       .  S
C233        C345   1.489       .  S
C234        C305   1.495       .  S
O245        C253   1.253       .  A
O245       Co265   1.959       .  S
O246        C254   1.261       .  A
O246       Co266   1.898       .  S
O247        C255   1.280       .  A
O247       Co267   2.037   1_545  S
O248        C256   1.264       .  A
O248       Co268   2.021   1_565  S
O249        C255   1.265       .  A
O249       Co266   1.954       .  S
O250        C256   1.252       .  A
O250       Co265   1.962       .  S
O251        C254   1.292       .  A
O251       Co268   2.110       .  S
O252        C253   1.270       .  A
O252       Co267   2.030       .  S
C253        C418   1.490       .  S
C254        C315   1.478       .  S
C255        C398   1.484       .  S
C256        C278   1.482       .  S
O257        C270   1.278       .  A
O257       Co265   2.025       .  S
O258        C271   1.262       .  A
O258       Co266   2.000       .  S
O259        C272   1.262       .  A
O259       Co267   1.953       .  S
O260        C273   1.269       .  A
O260       Co268   1.899       .  S
O261        C273   1.295       .  A
O261       Co266   2.094       .  S
O262        C272   1.279       .  A
O262       Co265   2.035       .  S
O263        C270   1.267       .  A
O263       Co268   1.967   1_565  S
O264        C271   1.250       .  A
O264       Co267   1.969   1_545  S
Co265       O269   1.995       .  S
Co266       O269   1.989   1_545  S
Co267       O269   2.041       .  S
Co268       O269   2.031   1_545  S
C270        C355   1.477       .  S
C271        C298   1.484       .  S
C272        C335   1.486       .  S
C273        C378   1.481       .  S
C274        C275   1.404       .  A
C274        C279   1.404       .  A
C274        H281   1.083       .  S
C275        C276   1.405       .  A
C276        C277   1.389       .  A
C276       Br283   1.923       .  S
C277        C278   1.407       .  A
C277        H282   1.083       .  S
C278        C279   1.412       .  A
C279       Br280   1.917       .  S
C284        C285   1.401       .  A
C284        C289   1.399       .  A
C284        H291   1.082       .  S
C285        C286   1.407       .  A
C286        C287   1.399       .  A
C286       Br293   1.913       .  S
C287        C288   1.403       .  A
C287        H292   1.083       .  S
C288        C289   1.408       .  A
C289       Br290   1.917       .  S
C294        C295   1.400       .  A
C294        C299   1.402       .  A
C294        H301   1.083       .  S
C295        C296   1.411       .  A
C296        C297   1.391       .  A
C296       Br303   1.923       .  S
C297        C298   1.402       .  A
C297        H302   1.083       .  S
C298        C299   1.422       .  A
C299       Br300   1.923       .  S
C304        C305   1.399       .  A
C304        C309   1.396       .  A
C304        H311   1.084       .  S
C305        C306   1.411       .  A
C306        C307   1.407       .  A
C306       Br313   1.917       .  S
C307        C308   1.406       .  A
C307        H312   1.083       .  S
C308        C309   1.412       .  A
C309       Br310   1.915       .  S
C314        C315   1.406       .  A
C314        C319   1.408       .  A
C314        H321   1.084       .  S
C315        C316   1.409       .  A
C316        C317   1.393       .  A
C316       Br323   1.920       .  S
C317        C318   1.401       .  A
C317        H322   1.084       .  S
C318        C319   1.412       .  A
C319       Br320   1.914       .  S
C324        C325   1.399       .  A
C324        C329   1.393       .  A
C324        H331   1.081       .  S
C325        C326   1.403       .  A
C326        C327   1.403       .  A
C326       Br333   1.914       .  S
C327        C328   1.407       .  A
C327        H332   1.083       .  S
C328        C329   1.406       .  A
C329       Br330   1.918       .  S
C334        C335   1.411       .  A
C334        C339   1.402       .  A
C334        H341   1.084       .  S
C335        C336   1.412       .  A
C336        C337   1.396       .  A
C336       Br343   1.920       .  S
C337        C338   1.404       .  A
C337        H342   1.084       .  S
C338        C339   1.408       .  A
C339       Br340   1.917       .  S
C344        C345   1.400       .  A
C344        C349   1.395       .  A
C344        H351   1.084       .  S
C345        C346   1.409       .  A
C346        C347   1.403       .  A
C346       Br353   1.917       .  S
C347        C348   1.405       .  A
C347        H352   1.083       .  S
C348        C349   1.411       .  A
C349       Br350   1.914       .  S
C354        C355   1.407       .  A
C354        C359   1.402       .  A
C354        H361   1.083       .  S
C355        C356   1.413       .  A
C356        C357   1.395       .  A
C356       Br363   1.923       .  S
C357        C358   1.401       .  A
C357        H362   1.084       .  S
C358        C359   1.405       .  A
C359       Br360   1.916       .  S
C364        C365   1.401       .  A
C364        C369   1.398       .  A
C364        H371   1.083       .  S
C365        C366   1.408       .  A
C366        C367   1.408       .  A
C366       Br373   1.914       .  S
C367        C368   1.407       .  A
C367        H372   1.083       .  S
C368        C369   1.407       .  A
C369       Br370   1.917       .  S
C374        C375   1.399       .  A
C374        C379   1.399       .  A
C374        H381   1.084       .  S
C375        C376   1.404       .  A
C376        C377   1.397       .  A
C376       Br383   1.918       .  S
C377        C378   1.406       .  A
C377        H382   1.083       .  S
C378        C379   1.414       .  A
C379       Br380   1.915       .  S
C384        C385   1.400       .  A
C384        C389   1.395       .  A
C384        H391   1.082       .  S
C385        C386   1.406       .  A
C386        C387   1.401       .  A
C386       Br393   1.915       .  S
C387        C388   1.403       .  A
C387        H392   1.083       .  S
C388        C389   1.407       .  A
C389       Br390   1.919       .  S
C394        C395   1.401       .  A
C394        C399   1.401       .  A
C394        H401   1.082       .  S
C395        C396   1.402       .  A
C396        C397   1.395       .  A
C396       Br403   1.919       .  S
C397        C398   1.410       .  A
C397        H402   1.084       .  S
C398        C399   1.416       .  A
C399       Br400   1.921       .  S
C404        C405   1.400       .  A
C404        C409   1.396       .  A
C404        H411   1.083       .  S
C405        C406   1.407       .  A
C406        C407   1.404       .  A
C406       Br413   1.913       .  S
C407        C408   1.405       .  A
C407        H412   1.083       .  S
C408        C409   1.407       .  A
C409       Br410   1.918       .  S
C414        C415   1.400       .  A
C414        C419   1.402       .  A
C414        H421   1.084       .  S
C415        C416   1.406       .  A
C416        C417   1.401       .  A
C416       Br423   1.918       .  S
C417        C418   1.407       .  A
C417        H422   1.083       .  S
C418        C419   1.419       .  A
C419       Br420   1.922       .  S
C424        C425   1.402       .  A
C424        C429   1.396       .  A
C424        H431   1.083       .  S
C425        C426   1.410       .  A
C426        C427   1.399       .  A
C426       Br433   1.919       .  S
C427        C428   1.401       .  A
C427        H432   1.083       .  S
C428        C429   1.405       .  A
C429       Br430   1.912       .  S
C434        C435   1.407       .  A
C434        C439   1.397       .  A
C434        H441   1.082       .  S
C435        C436   1.412       .  A
C436        C437   1.402       .  A
C436       Br443   1.913       .  S
C437        C438   1.402       .  A
C437        H442   1.084       .  S
C438        C439   1.403       .  A
C439       Br440   1.916       .  S
C444        C445   1.407       .  A
C444        C449   1.392       .  A
C444        H451   1.083       .  S
C445        C446   1.419       .  A
C446        C447   1.401       .  A
C446       Br453   1.923       .  S
C447        C448   1.399       .  A
C447        H452   1.083       .  S
C448        C449   1.403       .  A
C449       Br450   1.919       .  S
C454        C455   1.397       .  A
C454        C459   1.395       .  A
C454        H461   1.077       .  S
C455        C456   1.405       .  A
C456        C457   1.399       .  A
C456       Br463   1.918       .  S
C457        C458   1.405       .  A
C457        H462   1.083       .  S
C458        C459   1.410       .  A
C459       Br460   1.922       .  S
C464        C465   1.406       .  A
C464        C469   1.392       .  A
C464        H471   1.083       .  S
C465        C466   1.414       .  A
C466        C467   1.409       .  A
C466       Br473   1.918       .  S
C467        C468   1.406       .  A
C467        H472   1.083       .  S
C468        C469   1.408       .  A
C469       Br470   1.923       .  S
C474        C475   1.400       .  A
C474        C479   1.395       .  A
C474        H481   1.084       .  S
C475        C476   1.406       .  A
C476        C477   1.399       .  A
C476       Br483   1.913       .  S
C477        C478   1.407       .  A
C477        H482   1.083       .  S
C478        C479   1.413       .  A
C479       Br480   1.919       .  S
C484        C485   1.404       .  A
C484        C489   1.405       .  A
C484        H491   1.083       .  S
C485        C486   1.409       .  A
C486        C487   1.393       .  A
C486       Br493   1.916       .  S
C487        C488   1.398       .  A
C487        H492   1.084       .  S
C488        C489   1.410       .  A
C489       Br490   1.917       .  S
C494        C495   1.405       .  A
C494        C499   1.391       .  A
C494        H501   1.083       .  S
C495        C496   1.420       .  A
C496        C497   1.403       .  A
C496       Br503   1.924       .  S
C497        C498   1.403       .  A
C497        H502   1.081       .  S
C498        C499   1.409       .  A
C499       Br500   1.922       .  S
C504        C505   1.399       .  A
C504        C509   1.394       .  A
C504        H511   1.084       .  S
C505        C506   1.407       .  A
C506        C507   1.401       .  A
C506       Br513   1.918       .  S
C507        C508   1.402       .  A
C507        H512   1.083       .  S
C508        C509   1.407       .  A
C509       Br510   1.913       .  S
C514        C515   1.402       .  A
C514        C519   1.407       .  A
C514        H521   1.084       .  S
C515        C516   1.408       .  A
C516        C517   1.399       .  A
C516       Br523   1.919       .  S
C517        C518   1.405       .  A
C517        H522   1.084       .  S
C518        C519   1.417       .  A
C519       Br520   1.916       .  S
C524        C525   1.403       .  A
C524        C529   1.400       .  A
C524        H531   1.083       .  S
C525        C526   1.410       .  A
C526        C527   1.398       .  A
C526       Br533   1.917       .  S
C527        C528   1.401       .  A
C527        H532   1.083       .  S
C528        C529   1.407       .  A
C529       Br530   1.917       .  S
C534        C535   1.410       .  A
C534        C539   1.399       .  A
C534        H541   1.083       .  S
C535        C536   1.417       .  A
C536        C537   1.394       .  A
C536       Br543   1.922       .  S
C537        C538   1.397       .  A
C537        H542   1.083       .  S
C538        C539   1.402       .  A
C539       Br540   1.917       .  S
C544        C545   1.401       .  A
C544        C549   1.398       .  A
C544        H551   1.083       .  S
C545        C546   1.406       .  A
C546        C547   1.394       .  A
C546       Br553   1.918       .  S
C547        C548   1.400       .  A
C547        H552   1.083       .  S
C548        C549   1.407       .  A
C549       Br550   1.911       .  S
C554        C555   1.403       .  A
C554        C559   1.392       .  A
C554        H561   1.083       .  S
C555        C556   1.420       .  A
C556        C557   1.400       .  A
C556       Br563   1.922       .  S
C557        C558   1.398       .  A
C557        H562   1.084       .  S
C558        C559   1.405       .  A
C559       Br560   1.920       .  S
C564        C565   1.401       .  A
C564        C569   1.402       .  A
C564        H571   1.084       .  S
C565        C566   1.409       .  A
C566        C567   1.398       .  A
C566       Br573   1.919       .  S
C567        C568   1.403       .  A
C567        H572   1.083       .  S
C568        C569   1.415       .  A
C569       Br570   1.915       .  S
C574        C575   1.400       .  A
C574        C579   1.397       .  A
C574        H581   1.084       .  S
C575        C576   1.408       .  A
C576        C577   1.403       .  A
C576       Br583   1.908       .  S
C577        C578   1.401       .  A
C577        H582   1.083       .  S
C578        C579   1.409       .  A
C579       Br580   1.920       .  S
C584        C585   1.402       .  A
C584        C589   1.399       .  A
C584        H591   1.084       .  S
C585        C586   1.407       .  A
C586        C587   1.393       .  A
C586       Br593   1.913       .  S
C587        C588   1.398       .  A
C587        H592   1.083       .  S
C588        C589   1.408       .  A
C589       Br590   1.917       .  S
C594        C595   1.406       .  A
C594        C599   1.392       .  A
C594        H601   1.083       .  S
C595        C596   1.420       .  A
C596        C597   1.403       .  A
C596       Br603   1.919       .  S
C597        C598   1.402       .  A
C597        H602   1.082       .  S
C598        C599   1.407       .  A
C599       Br600   1.921       .  S
C604        C605   1.408       .  A
C604        C609   1.388       .  A
C604        H611   1.083       .  S
C605        C606   1.411       .  A
C606        C607   1.409       .  A
C606       Br613   1.914       .  S
C607        C608   1.407       .  A
C607        H612   1.083       .  S
C608        C609   1.404       .  A
C609       Br610   1.921       .  S
C614        C615   1.400       .  A
C614        C619   1.400       .  A
C614        H621   1.083       .  S
C615        C616   1.403       .  A
C616        C617   1.389       .  A
C616       Br623   1.919       .  S
C617        C618   1.405       .  A
C617        H622   1.084       .  S
C618        C619   1.411       .  A
C619       Br620   1.919       .  S
C624        C625   1.399       .  A
C624        C629   1.397       .  A
C624        H631   1.078       .  S
C625        C626   1.407       .  A
C626        C627   1.402       .  A
C626       Br633   1.917       .  S
C627        C628   1.406       .  A
C627        H632   1.082       .  S
C628        C629   1.413       .  A
C629       Br630   1.922       .  S
