geometry optimzed in LAMMPS
_audit_creation_date              2020-11-30 
_audit_creation_method            'lammps2cif' 
_symmetry_space_group_name_H-M    'P1' 
_symmetry_Int_Tables_number       1 
_symmetry_cell_setting            triclinic 
loop_ 
_symmetry_equiv_pos_as_xyz 
  x,y,z 
_cell_length_a                    39.66410058 
_cell_length_b                    39.51548491941515 
_cell_length_c                    39.80586524218136 
_cell_angle_alpha                 90.09105350717246 
_cell_angle_beta                  89.86933155841942 
_cell_angle_gamma                 89.81406622530375 
loop_ 
_atom_site_label 
_atom_site_type_symbol 
_atom_site_fract_x 
_atom_site_fract_y 
_atom_site_fract_z 
_atom_site_charge 
C1          C  0.48666297  0.38340057  0.07765074     0.42500
N2          N  0.47118218  0.41534936  0.03652381     0.01400
C3          C  0.57671538  0.51089540  0.93407314    -0.06500
H4          H  0.58348194  0.53685849  0.06458015     0.06900
C5          C  0.46801594  0.57903059  0.05998958    -0.06900
Co6        Co  0.53141395  0.44011759  0.99713597     0.74200
N7          N  0.55968504  0.49965694  0.03289059    -0.26000
Co8        Co  0.53367647  0.52725506  0.99664050     0.74100
C9          C  0.50045913  0.59014077  0.07397030     0.42600
N10         N  0.42178113  0.50552881  0.03750212     0.01000
N11         N  0.50935037  0.55495682  0.03365421     0.01100
N12         N  0.57674852  0.45368469  0.93452999    -0.46900
H13         H  0.54276120  0.39027000  0.06435080     0.06800
N14         N  0.55957587  0.46627589  0.03308056     0.01400
N15         N  0.50695731  0.55398976  0.96049301     0.01100
C16         C  0.49507962  0.58714622  0.91946261     0.42700
N17         N  0.41965654  0.47213423  0.03830577    -0.25500
C18         C  0.51279468  0.39680580  0.93556989    -0.06400
N19         N  0.45942351  0.39635111  0.06154720    -0.46600
N20         N  0.52055354  0.57210587  0.93614307    -0.46800
C21         C  0.48227375  0.38435826  0.91972825     0.42500
N22         N  0.55766099  0.46625096  0.95912001     0.01400
N23         N  0.41619167  0.47113863  0.96445652    -0.25500
N24         N  0.50449099  0.41508464  0.03495489    -0.26000
N25         N  0.41817001  0.50454149  0.96417749     0.01000
H26         H  0.38524812  0.43594839  0.93650238     0.06900
H27         H  0.43802720  0.58420851  0.93115155     0.06900
N28         N  0.55773433  0.49957954  0.95945130    -0.26100
N29         N  0.47623770  0.55729196  0.03503322    -0.25700
N30         N  0.46876823  0.41509734  0.96241690     0.01400
C31         C  0.59049348  0.48003376  0.07500319     0.42800
C32         C  0.40091271  0.46350829  0.06531643    -0.06900
N33         N  0.47377606  0.55612483  0.96130153    -0.25700
H34         H  0.44273428  0.58698548  0.06656989     0.06900
N35         N  0.57798393  0.45335223  0.05782266    -0.46900
H36         H  0.39439680  0.43799180  0.07257843     0.06900
C37         C  0.38097514  0.49333081  0.92620596     0.42600
C38         C  0.51642878  0.39579782  0.05991111    -0.06400
Co39       Co  0.44315961  0.44264349  0.00043924     0.73800
N40         N  0.40565542  0.52038074  0.06259972    -0.46600
C41         C  0.58924363  0.48054723  0.91732508     0.42900
N42         N  0.45573495  0.39631626  0.93785363    -0.46600
Co43       Co  0.44694154  0.53124960  0.99943835     0.73900
C44         C  0.46376846  0.57680319  0.93630746    -0.06900
C45         C  0.57850202  0.51066787  0.05850388    -0.06500
N46         N  0.50212120  0.41530907  0.96159476    -0.26000
N47         N  0.52459367  0.57418223  0.05606076    -0.46800
H48         H  0.58227686  0.53718818  0.92913331     0.06900
C49         C  0.39339141  0.46162519  0.94112657    -0.06900
Cl50       Cl  0.48860042  0.48514506  0.99837325    -0.49900
C51         C  0.39187815  0.49579496  0.08152268     0.42600
H52         H  0.53886629  0.39195186  0.92911290     0.06800
N53         N  0.39749433  0.51854352  0.94211171    -0.46600
C54         C  0.23769833  0.52289020  0.20559297     0.03100
C55         C  0.21768079  0.54538733  0.18682007    -0.13000
C56         C  0.18671031  0.55711330  0.19936363     0.00600
C57         C  0.17655593  0.54730122  0.23160395    -0.11500
C58         C  0.19600179  0.52491139  0.25071563     0.03100
C59         C  0.22654365  0.51224976  0.23756363    -0.11000
H60         H  0.22555362  0.55242882  0.16169540     0.08700
H61         H  0.15292386  0.55667112  0.24181097     0.06300
H62         H  0.24151461  0.49458131  0.25206068     0.06100
C63         C  0.74275206  0.48245824  0.19876887     0.03100
C64         C  0.75889521  0.50974538  0.18300295    -0.13000
C65         C  0.78755808  0.52454312  0.19719091     0.00600
C66         C  0.79913172  0.51255370  0.22816499    -0.11500
C67         C  0.78387725  0.48482876  0.24385816     0.03100
C68         C  0.75569927  0.46937453  0.22898390    -0.11000
H69         H  0.74964449  0.51857927  0.15894975     0.08700
H70         H  0.82098105  0.52410392  0.23975329     0.06300
H71         H  0.74374973  0.44793011  0.24097308     0.06100
C72         C  0.17024047  0.50190602  0.76977271     0.03100
C73         C  0.14784442  0.51891325  0.79136963    -0.13000
C74         C  0.15697931  0.52735476  0.82426255     0.00600
C75         C  0.18948578  0.51949479  0.83552161    -0.11500
C76         C  0.21275247  0.50242107  0.81467642     0.03100
C77         C  0.20267659  0.49294734  0.78179619    -0.11000
H78         H  0.12275698  0.52527657  0.78258578     0.08700
H79         H  0.19637039  0.52576301  0.86111949     0.06300
H80         H  0.22017639  0.47973598  0.76544143     0.06100
C81         C  0.79275118  0.51960848  0.76038607     0.03100
C82         C  0.81583792  0.52967500  0.78501323    -0.13000
C83         C  0.80589558  0.53392558  0.81850957     0.00600
C84         C  0.77233567  0.52783373  0.82754967    -0.11500
C85         C  0.74875050  0.51730102  0.80350849     0.03100
C86         C  0.75897410  0.51312127  0.76968876    -0.11000
H87         H  0.84166884  0.53499967  0.77781461     0.08700
H88         H  0.76446536  0.53126783  0.85344473     0.06300
H89         H  0.74079142  0.50571420  0.75082470     0.06100
N90         N  0.98153545  0.62188621  0.97004264    -0.36600
N91         N  0.92789390  0.62282093  0.02099096    -0.57200
N92         N  0.98095305  0.62576172  0.07077784    -0.36600
N93         N  0.03439833  0.63118124  0.02041824    -0.57200
C94         C  0.95372867  0.62624919  0.95093272     0.27000
C95         C  0.00859160  0.62925593  0.95071696     0.27000
C96         C  0.95296652  0.63127165  0.08936287     0.27000
C97         C  0.00751056  0.63615484  0.08915448     0.27000
C98         C  0.91114323  0.61093840  0.99398604     0.35600
C99         C  0.91116502  0.61129322  0.04827690     0.35600
C100        C  0.05287664  0.62074423  0.99370718     0.35600
C101        C  0.05242808  0.62293932  0.04807213     0.35600
C102        C  0.96317754  0.63706128  0.91916011    -0.21900
C103        C  0.99788441  0.63887383  0.91900334    -0.21900
C104        C  0.96168195  0.64605218  0.11970670    -0.21900
C105        C  0.99627456  0.64916344  0.11957258    -0.21900
C106        C  0.88331493  0.59238536  0.00406747    -0.22900
C107        C  0.88350470  0.59230952  0.03849763    -0.22900
C108        C  0.08298262  0.60657167  0.00441046    -0.22900
C109        C  0.08264000  0.60779807  0.03878162    -0.22900
C110        C  0.92071824  0.61661671  0.96033042    -0.18300
C111        C  0.04249353  0.62306584  0.95982414    -0.18300
C112        C  0.04132536  0.62810082  0.08151329    -0.18300
C113        C  0.92104686  0.61774727  0.08173902    -0.18300
H114        H  0.94683385  0.64183747  0.89793983     0.14600
H115        H  0.01355111  0.64530980  0.89766502     0.14600
H116        H  0.94500957  0.65207771  0.14045178     0.14600
H117        H  0.01161421  0.65800120  0.14023807     0.14600
H118        H  0.86536414  0.57930217  0.98830330     0.12900
H119        H  0.86569492  0.57902817  0.05424230     0.12900
H120        H  0.10263316  0.59517465  0.98923754     0.12900
H121        H  0.10201191  0.59741479  0.05483388     0.12900
H122        H  0.98223627  0.61112881  0.99373565     0.26200
H123        H  0.98225939  0.61160242  0.04885358     0.26200
C124        C  0.06602411  0.48332926  0.39494695     0.42500
N125        N  0.02441513  0.46836546  0.42619452     0.01400
C126        C  0.91871461  0.56932338  0.52172268    -0.06500
H127        H  0.05312521  0.57584591  0.55251675     0.06900
C128        C  0.04498366  0.45726484  0.58965181    -0.06900
Co129      Co  0.98657608  0.52777514  0.45348962     0.74200
N130        N  0.02104077  0.55298968  0.51493821    -0.26000
Co131      Co  0.98285620  0.52652030  0.54064403     0.74100
C132        C  0.05884476  0.48916976  0.60304871     0.42600
N133        N  0.02342465  0.41433902  0.51220079     0.01000
N134        N  0.01912412  0.50008866  0.56774528     0.01100
N135        N  0.92392445  0.57006250  0.46516986    -0.46900
H136        H  0.05545627  0.53985473  0.40446565     0.06800
N137        N  0.02207140  0.55324832  0.48179110     0.01400
N138        N  0.94538686  0.49840240  0.56553564     0.01100
C139        C  0.90446062  0.48303754  0.59790348     0.42700
N140        N  0.02372410  0.41537041  0.47901681    -0.25500
C141        C  0.92454903  0.51310890  0.40871319    -0.06400
N142        N  0.04853493  0.45630546  0.40628719    -0.46600
N143        N  0.92088134  0.51021389  0.58519330    -0.46800
C144        C  0.90767551  0.48307823  0.39609058     0.42500
N145        N  0.94864464  0.55280115  0.47932042     0.01400
N146        N  0.95036449  0.41379306  0.47717320    -0.25500
N147        N  0.02441299  0.50168958  0.42777662    -0.26000
N148        N  0.94881990  0.41279186  0.51031797     0.01000
H149        H  0.92100051  0.39053471  0.43803833     0.06900
H150        H  0.91716161  0.42655086  0.58956685     0.06900
N151        N  0.94644654  0.55201970  0.51236404    -0.26100
N152        N  0.02049658  0.46669588  0.56791396    -0.25700
N153        N  0.95045579  0.46788320  0.42520685     0.01400
C154        C  0.06471977  0.58304486  0.49613134     0.42800
C155        C  0.05033139  0.39799835  0.46760497    -0.06900
N156        N  0.94653778  0.46499455  0.56499294    -0.25700
H157        H  0.05137898  0.43147956  0.59617101     0.06900
N158        N  0.04737744  0.57116845  0.46960088    -0.46900
H159        H  0.05657620  0.39431980  0.44140990     0.06900
C160        C  0.90765868  0.38160705  0.49358434     0.42600
C161        C  0.04995972  0.51347023  0.40904308    -0.06400
Co162      Co  0.98722936  0.44069948  0.45143547     0.73800
N163        N  0.04899069  0.39646162  0.52443392    -0.46600
C164        C  0.90379055  0.58105799  0.49015472     0.42900
N165        N  0.92521790  0.45581266  0.40693742    -0.46600
Co166      Co  0.98491135  0.43888334  0.53940445     0.73900
C167        C  0.92161972  0.45301768  0.58443953    -0.06900
C168        C  0.04728429  0.57116247  0.52640068    -0.06500
N169        N  0.95060479  0.50123550  0.42642250    -0.26000
N170        N  0.04118913  0.51420432  0.58820922    -0.46800
H171        H  0.91032844  0.57333495  0.54729050     0.06900
C172        C  0.92563719  0.39475187  0.46447431    -0.06900
Cl173      Cl  0.98542668  0.48342330  0.49632918    -0.49900
C174        C  0.06722661  0.38560739  0.49765184     0.42600
H175        H  0.91830272  0.53949367  0.40503009     0.06800
N176        N  0.92350700  0.39367958  0.52125445    -0.46600
C177        C  0.52174397  0.78376822  0.24922173     0.03100
C178        C  0.51172311  0.75283651  0.23457612    -0.13000
C179        C  0.52018763  0.74573157  0.20072130     0.00600
C180        C  0.53799238  0.77004655  0.18199900    -0.11500
C181        C  0.54690892  0.80102975  0.19630853     0.03100
C182        C  0.53891602  0.80762050  0.22978792    -0.11000
H183        H  0.49819996  0.73436500  0.24943658     0.08700
H184        H  0.54382012  0.76540017  0.15576321     0.06300
H185        H  0.54600264  0.83168845  0.24082813     0.06100
C186        C  0.48176382  0.22381127  0.19716082     0.03100
C187        C  0.50476514  0.20456488  0.17822853    -0.13000
C188        C  0.51774630  0.17404586  0.19044645     0.00600
C189        C  0.50752992  0.16266597  0.22210414    -0.11500
C190        C  0.48448884  0.18112142  0.24173813     0.03100
C191        C  0.47108926  0.21181129  0.22899231    -0.11000
H192        H  0.51255642  0.21354127  0.15368876     0.08700
H193        H  0.51799110  0.13930599  0.23190060     0.06300
H194        H  0.45365790  0.22662094  0.24401298     0.06100
C195        C  0.49343580  0.21921087  0.81076815     0.03100
C196        C  0.50647389  0.19607272  0.83414464    -0.13000
C197        C  0.52078928  0.16556274  0.82346655     0.00600
C198        C  0.52244312  0.15803232  0.78927568    -0.11500
C199        C  0.50970529  0.18062981  0.76531399     0.03100
C200        C  0.49502057  0.21145935  0.77609871    -0.11000
H201        H  0.50541551  0.20181188  0.86077978     0.08700
H202        H  0.53317718  0.13403438  0.78130612     0.06300
H203        H  0.48486908  0.22903207  0.75785258     0.06100
C204        C  0.51716893  0.79469518  0.76534989     0.03100
C205        C  0.50661418  0.76301268  0.77740152    -0.13000
C206        C  0.51309865  0.75399442  0.81099207     0.00600
C207        C  0.52985144  0.77682687  0.83223702    -0.11500
C208        C  0.53943891  0.80871761  0.82037481     0.03100
C209        C  0.53328895  0.81734321  0.78696432    -0.11000
H210        H  0.49353443  0.74564445  0.76090918     0.08700
H211        H  0.53426668  0.77025218  0.85829730     0.06300
H212        H  0.54062692  0.84211347  0.77783152     0.06100
N213        N  0.62342119  0.03899562  0.01639043    -0.36600
N214        N  0.62796898  0.98880735  0.96300705    -0.57200
N215        N  0.64300563  0.93485503  0.01076708    -0.36600
N216        N  0.63526683  0.98496899  0.06407456    -0.57200
C217        C  0.60857187  0.05523559  0.99045754     0.27000
C218        C  0.61058635  0.05255334  0.04492598     0.27000
C219        C  0.63298924  0.91708162  0.98347405     0.27000
C220        C  0.63717751  0.91510558  0.03791916     0.27000
C221        C  0.62653404  0.01724352  0.94428675     0.35600
C222        C  0.63535249  0.96334507  0.94154844     0.35600
C223        C  0.63545243  0.01181752  0.08506001     0.35600
C224        C  0.64649282  0.95833187  0.08203248     0.35600
C225        C  0.58670197  0.07983985  0.00249156    -0.21900
C226        C  0.58767024  0.07792662  0.03686016    -0.21900
C227        C  0.62163236  0.88544205  0.99334077    -0.21900
C228        C  0.62426016  0.88419644  0.02762554    -0.21900
C229        C  0.63330739  0.00991011  0.91089566    -0.22900
C230        C  0.63885688  0.97566741  0.90915069    -0.22900
C231        C  0.64732715  0.00236924  0.11638514    -0.22900
C232        C  0.65433933  0.96837025  0.11446526    -0.22900
C233        C  0.61433477  0.04855387  0.95616382    -0.18300
C234        C  0.61905223  0.04264521  0.07799082    -0.18300
C235        C  0.64238443  0.92446953  0.07181116    -0.18300
C236        C  0.63323913  0.92877749  0.94992980    -0.18300
H237        H  0.57098024  0.09682796  0.98801569     0.14600
H238        H  0.57262710  0.09320995  0.05379408     0.14600
H239        H  0.61146290  0.86556058  0.97767291     0.14600
H240        H  0.61653491  0.86314936  0.04315883     0.14600
H241        H  0.63276622  0.02717698  0.88981848     0.12900
H242        H  0.64343035  0.96121592  0.88646070     0.12900
H243        H  0.64884959  0.01793139  0.13873014     0.12900
H244        H  0.66218519  0.95237158  0.13508791     0.12900
H245        H  0.64197432  0.02036829  0.01458107     0.26200
H246        H  0.65348062  0.95898973  0.01083404     0.26200
C247        C  0.19304240  0.72961458  0.52460550     0.03100
C248        C  0.22376593  0.74348827  0.51347299    -0.13000
C249        C  0.23202301  0.77708486  0.52213425     0.00600
C250        C  0.20929100  0.79645368  0.54131987    -0.11500
C251        C  0.17827333  0.78302368  0.55147064     0.03100
C252        C  0.17052576  0.74957749  0.54322409    -0.11000
H253        H  0.24111881  0.72830475  0.49871594     0.08700
H254        H  0.21529398  0.82254163  0.54722332     0.06300
H255        H  0.14669612  0.73889650  0.55132058     0.06100
C256        C  0.73204272  0.19407298  0.53124204     0.03100
C257        C  0.74024001  0.22819103  0.52436008    -0.13000
C258        C  0.77418223  0.23874651  0.52633364     0.00600
C259        C  0.79914648  0.21536509  0.53523774    -0.11500
C260        C  0.79114284  0.18180464  0.54227144     0.03100
C261        C  0.75759035  0.17131410  0.54054163    -0.11000
H262        H  0.72074769  0.24594205  0.51704719     0.08700
H263        H  0.82519818  0.22349989  0.53685528     0.06300
H264        H  0.75140032  0.14508105  0.54553598     0.06100
C265        C  0.18503556  0.22876478  0.52555193     0.03100
C266        C  0.16144271  0.20359710  0.53304148    -0.13000
C267        C  0.16946149  0.16937521  0.52941052     0.00600
C268        C  0.20182036  0.16007069  0.51879254    -0.11500
C269        C  0.22582241  0.18488764  0.51079634     0.03100
C270        C  0.21736377  0.21944451  0.51393679    -0.11000
H271        H  0.13630299  0.21075414  0.54123823     0.08700
H272        H  0.20821526  0.13349097  0.51621477     0.06300
H273        H  0.23567879  0.23872463  0.50768679     0.06100
C274        C  0.73063958  0.77163542  0.50143727     0.03100
C275        C  0.75547270  0.79440166  0.51214806    -0.13000
C276        C  0.78854718  0.78352513  0.51754728     0.00600
C277        C  0.79677622  0.74955668  0.51241207    -0.11500
C278        C  0.77213761  0.72627435  0.50254686     0.03100
C279        C  0.73887972  0.73726428  0.49671904    -0.11000
H280        H  0.74901693  0.82081484  0.51603713     0.08700
H281        H  0.82230589  0.74089278  0.51717275     0.06300
H282        H  0.71970313  0.71936010  0.48917160     0.06100
N283        N  0.92251414  0.97918398  0.60847269    -0.36600
N284        N  0.97881177  0.02608217  0.60159160    -0.57200
N285        N  0.02669675  0.96999957  0.60279417    -0.36600
N286        N  0.97028896  0.92349486  0.60495008    -0.57200
C287        C  0.90661430  0.00822234  0.60011327     0.27000
C288        C  0.90217606  0.95346113  0.59900671     0.27000
C289        C  0.04598424  0.99532822  0.59049172     0.27000
C290        C  0.04145751  0.94051877  0.59342201     0.27000
C291        C  0.95382434  0.04824930  0.60887103     0.35600
C292        C  0.00798862  0.04347981  0.60394173     0.35600
C293        C  0.94156421  0.90634549  0.61090923     0.35600
C294        C  0.99575286  0.90147168  0.61024911     0.35600
C295        C  0.87557713  0.00093057  0.58584286    -0.21900
C296        C  0.87285350  0.96635664  0.58498941    -0.21900
C297        C  0.07344640  0.98179155  0.57346755    -0.21900
C298        C  0.07060361  0.94723941  0.57531834    -0.21900
C299        C  0.96713317  0.07983557  0.61594986    -0.22900
C300        C  0.00151584  0.07681624  0.61281433    -0.22900
C301        C  0.94871263  0.87334276  0.62021580    -0.22900
C302        C  0.98317490  0.87030588  0.62006336    -0.22900
C303        C  0.91915742  0.04117346  0.60537996    -0.18300
C304        C  0.90924694  0.91868981  0.60304382    -0.18300
C305        C  0.02946771  0.90771802  0.60104225    -0.18300
C306        C  0.03993463  0.03033552  0.59494409    -0.18300
H307        H  0.85704342  0.01864043  0.57635590     0.14600
H308        H  0.85176727  0.95240611  0.57483177     0.14600
H309        H  0.09328571  0.99535113  0.56058266     0.14600
H310        H  0.08782610  0.92919265  0.56405160     0.14600
H311        H  0.95342923  0.10281430  0.62190131     0.12900
H312        H  0.01961962  0.09698845  0.61604224     0.12900
H313        H  0.93089293  0.85331234  0.62538138     0.12900
H314        H  0.99730430  0.84738152  0.62502450     0.22500
H315        H  0.94547680  0.97723367  0.62091002     0.26200
H316        H  0.00538012  0.97266411  0.61786481     0.26200
C317        C  0.48589311  0.90183453  0.40458151     0.42500
N318        N  0.47080911  0.94460610  0.43475085     0.01400
C319        C  0.57056157  0.04748750  0.53479519    -0.06500
H320        H  0.56993379  0.91712258  0.56817191     0.06900
C321        C  0.44856596  0.92844703  0.59515170    -0.06900
Co322      Co  0.53018947  0.98112640  0.46380849     0.74200
N323        N  0.55085570  0.94704920  0.52740257    -0.26000
Co324      Co  0.52421491  0.98597663  0.55090143     0.74100
C325        C  0.47764095  0.91215894  0.61066049     0.42600
N326        N  0.41335324  0.94939355  0.51811070     0.01000
N327        N  0.49488751  0.95067498  0.57685050     0.01100
N328        N  0.57484758  0.04313214  0.47829162    -0.46900
H329        H  0.54210911  0.91104603  0.41600747     0.06800
N330        N  0.55341275  0.94463087  0.49441857     0.01400
N331        N  0.49629658  0.02487417  0.57374077     0.01100
C332        C  0.48037431  0.06690265  0.60451415     0.42700
N333        N  0.41453300  0.94763236  0.48499381    -0.25500
C334        C  0.51898757  0.04202672  0.41542247    -0.06400
N335        N  0.45905448  0.92035670  0.41494081    -0.46600
N336        N  0.50766648  0.04924054  0.59371594    -0.46800
C337        C  0.49026984  0.05935407  0.39999828     0.42500
N338        N  0.55517687  0.01916156  0.49083517     0.01400
N339        N  0.41536893  0.02229037  0.48183248    -0.25500
N340        N  0.50397951  0.94361130  0.43756500    -0.26000
N341        N  0.41437507  0.02328717  0.51495960     0.01000
H342        H  0.39248615  0.05417263  0.44386093     0.06900
H343        H  0.42434275  0.05622892  0.59316517     0.06900
N344        N  0.55245378  0.02106334  0.52384494    -0.26100
N345        N  0.46175514  0.95169517  0.57454606    -0.25700
N346        N  0.47237906  0.01893619  0.43168544     0.01400
C347        C  0.58128655  0.90189314  0.51329486     0.42800
C348        C  0.39639432  0.92055194  0.47515447    -0.06900
N349        N  0.46315774  0.02511228  0.57117284    -0.25700
H350        H  0.42196457  0.92414564  0.59927350     0.06900
N351        N  0.57165455  0.91801046  0.48483874    -0.46900
H352        H  0.39281622  0.91232321  0.44949093     0.06900
C353        C  0.38439620  0.06606901  0.50025934     0.42600
C354        C  0.51578272  0.91734824  0.41952664    -0.06400
Co355      Co  0.44257349  0.98341999  0.45756742     0.73800
N356        N  0.39552664  0.92476807  0.53175554    -0.46600
C357        C  0.58531341  0.06221926  0.50450341     0.42900
N358        N  0.46213926  0.04340846  0.41109214    -0.46600
Co359      Co  0.43767203  0.98740016  0.54483555     0.73900
C360        C  0.45082289  0.05072187  0.58961442    -0.06900
C361        C  0.56760533  0.92131818  0.54145732    -0.06500
N362        N  0.50556667  0.01760741  0.43444919    -0.26000
N363        N  0.50552547  0.92738154  0.59833331    -0.46800
H364        H  0.57347625  0.05492703  0.56077540     0.06900
C365        C  0.39677880  0.04839953  0.47005459    -0.06900
Cl366      Cl  0.48368848  0.98451154  0.50423354    -0.49900
C367        C  0.38401563  0.90531403  0.50646271     0.42600
H368        H  0.54568834  0.04649298  0.41237689     0.06800
N369        N  0.39629215  0.04871994  0.52676539    -0.46600
C370        C  0.69634062  0.78511883  0.49655836    -0.05200
C371        C  0.68573539  0.79508687  0.46444986    -0.05200
C372        C  0.65866797  0.81768768  0.46077417    -0.23300
C373        C  0.64230190  0.83100146  0.48925374     0.18900
C374        C  0.65162924  0.81920431  0.52146511     0.16100
C375        C  0.67827094  0.79609288  0.52484726    -0.18400
C376        C  0.63575680  0.83242246  0.55002027    -0.20200
C377        C  0.61215060  0.85842647  0.54699427    -0.12700
C378        C  0.60378538  0.87181853  0.51534635     0.03900
C379        C  0.61822011  0.85717990  0.48635809    -0.24900
H380        H  0.69989768  0.78730636  0.44244082     0.09000
H381        H  0.65184691  0.82622341  0.43584137     0.12600
H382        H  0.68689335  0.78886555  0.54967668     0.12500
H383        H  0.64245062  0.82346467  0.57485531     0.12300
H384        H  0.60114780  0.86853517  0.56977360     0.12800
H385        H  0.61180325  0.86702703  0.46178416     0.14800
C386        C  0.81439517  0.80738146  0.52940982    -0.05200
C387        C  0.84540997  0.80969079  0.51256407    -0.05200
C388        C  0.87014748  0.83190706  0.52391491    -0.23300
C389        C  0.86434284  0.85175914  0.55255891     0.18900
C390        C  0.83327980  0.84938629  0.56989612     0.16100
C391        C  0.80837173  0.82736094  0.55801838    -0.18400
C392        C  0.82774335  0.86906265  0.59879179    -0.20200
C393        C  0.85269006  0.89115082  0.61021556    -0.12700
C394        C  0.88334563  0.89382933  0.59281564     0.03900
C395        C  0.88906335  0.87403854  0.56407392    -0.24900
H396        H  0.85032630  0.79446672  0.49042126     0.09000
H397        H  0.89383126  0.83347724  0.51038891     0.12600
H398        H  0.78454563  0.82529493  0.57126090     0.12500
H399        H  0.80411508  0.86749102  0.61240317     0.12300
H400        H  0.84800464  0.90648931  0.63232009     0.12800
H401        H  0.91268148  0.87640524  0.55049580     0.14800
C402        C  0.36109768  0.09522404  0.50435218    -0.05200
C403        C  0.35700013  0.10903068  0.53672091    -0.05200
C404        C  0.33226770  0.13322101  0.54329797    -0.23300
C405        C  0.31082771  0.14409762  0.51767681     0.18900
C406        C  0.31570659  0.13200240  0.48449772     0.16100
C407        C  0.34114196  0.10774118  0.47790353    -0.18400
C408        C  0.29363568  0.14284505  0.45911372    -0.20200
C409        C  0.26560214  0.16306633  0.46711875    -0.12700
C410        C  0.25970510  0.17334975  0.50040707     0.03900
C411        C  0.28316629  0.16498418  0.52528599    -0.24900
H412        H  0.37233231  0.10030001  0.55747892     0.09000
H413        H  0.32903780  0.14238714  0.56878223     0.12600
H414        H  0.34407943  0.09736899  0.45284850     0.12500
H415        H  0.29690960  0.13409679  0.43350314     0.12300
H416        H  0.24737082  0.16892602  0.44774792     0.12800
H417        H  0.27826918  0.17237589  0.55110278     0.14800
C418        C  0.06772238  0.05426322  0.58694912    -0.05200
C419        C  0.09883180  0.05179216  0.60358781    -0.05200
C420        C  0.12564982  0.07282805  0.59464234    -0.23300
C421        C  0.12163655  0.09694750  0.56914825     0.18900
C422        C  0.09026251  0.09976846  0.55248659     0.16100
C423        C  0.06365331  0.07826640  0.56131112    -0.18400
C424        C  0.08592635  0.12421537  0.52741832    -0.20200
C425        C  0.11214318  0.14623092  0.51945804    -0.12700
C426        C  0.14326594  0.14383084  0.53601691     0.03900
C427        C  0.14816442  0.11873871  0.56044883    -0.24900
H428        H  0.10239473  0.03324554  0.62327905     0.09000
H429        H  0.14944322  0.07033206  0.60773832     0.12600
H430        H  0.03980002  0.07998165  0.54815045     0.12500
H431        H  0.06208709  0.12670455  0.51439839     0.12300
H432        H  0.10807126  0.16548130  0.50053185     0.12800
H433        H  0.17208979  0.11710122  0.57348312     0.14800
C434        C  0.69758827  0.18030042  0.52788475    -0.05200
C435        C  0.67664446  0.17838354  0.55627022    -0.05200
C436        C  0.64870508  0.15677124  0.55653345    -0.23300
C437        C  0.64161343  0.13631719  0.52854430     0.18900
C438        C  0.66160669  0.13938184  0.49926149     0.16100
C439        C  0.68935515  0.16146519  0.49908432    -0.18400
C440        C  0.65464309  0.11893577  0.47130428    -0.20200
C441        C  0.62904802  0.09470599  0.47276063    -0.12700
C442        C  0.61005438  0.09024966  0.50224774     0.03900
C443        C  0.61595446  0.11178635  0.52984920    -0.24900
H444        H  0.68314542  0.19204290  0.57895079     0.09000
H445        H  0.63364787  0.15484016  0.57919173     0.12600
H446        H  0.70599128  0.16221992  0.47744257     0.12500
H447        H  0.66960082  0.12104145  0.44859714     0.12300
H448        H  0.62485830  0.07865766  0.45109891     0.12800
H449        H  0.60120813  0.10897023  0.55260946     0.14800
C450        C  0.81833041  0.15773734  0.55041787    -0.05200
C451        C  0.84681985  0.15559461  0.52951646    -0.05200
C452        C  0.87311985  0.13351137  0.53720960    -0.23300
C453        C  0.87141777  0.11342569  0.56608813     0.18900
C454        C  0.84296653  0.11564803  0.58752207     0.16100
C455        C  0.81643916  0.13766613  0.57939527    -0.18400
C456        C  0.84142728  0.09551146  0.61645427    -0.20200
C457        C  0.86732721  0.07257246  0.62344734    -0.12700
C458        C  0.89508204  0.06961117  0.60168329     0.03900
C459        C  0.89730467  0.09050310  0.57337965    -0.24900
H460        H  0.84854273  0.17087939  0.50701119     0.09000
H461        H  0.89470182  0.13204311  0.52052287     0.12600
H462        H  0.79458076  0.13955143  0.59571305     0.12500
H463        H  0.81987774  0.09692077  0.63318234     0.12300
H464        H  0.86519266  0.05617598  0.64512357     0.12800
H465        H  0.91847779  0.08774318  0.55628920     0.14800
C466        C  0.36162802  0.87581824  0.51196877    -0.05200
C467        C  0.35939495  0.86193649  0.54440623    -0.05200
C468        C  0.33572825  0.83701146  0.55186451    -0.23300
C469        C  0.31351414  0.82558727  0.52708778     0.18900
C470        C  0.31641540  0.83805597  0.49389757     0.16100
C471        C  0.34075856  0.86294909  0.48641982    -0.18400
C472        C  0.29379475  0.82656027  0.46929548    -0.20200
C473        C  0.26758230  0.80443305  0.47792967    -0.12700
C474        C  0.26374431  0.79331631  0.51118765     0.03900
C475        C  0.28732780  0.80328914  0.53544691    -0.24900
H476        H  0.37548335  0.87103050  0.56441568     0.09000
H477        H  0.33404325  0.82752067  0.57734020     0.12600
H478        H  0.34224708  0.87342958  0.46132551     0.12500
H479        H  0.29552326  0.83575063  0.44372487     0.12300
H480        H  0.24921707  0.79745234  0.45907501     0.12800
H481        H  0.28409178  0.79512839  0.56125592     0.14800
C482        C  0.05144635  0.87828656  0.59307379    -0.05200
C483        C  0.04174298  0.85562076  0.56769131    -0.05200
C484        C  0.06378977  0.83042910  0.55666338    -0.23300
C485        C  0.09622872  0.82806889  0.57027137     0.18900
C486        C  0.10594728  0.85012681  0.59652346     0.16100
C487        C  0.08322764  0.87479890  0.60817017    -0.18400
C488        C  0.13876977  0.84821425  0.60942432    -0.20200
C489        C  0.16221081  0.82580414  0.59532538    -0.12700
C490        C  0.15296419  0.80454533  0.56860799     0.03900
C491        C  0.11962834  0.80516297  0.55684359    -0.24900
H492        H  0.01743827  0.85822210  0.55558607     0.09000
H493        H  0.05597775  0.81372634  0.53653575     0.12600
H494        H  0.09077298  0.89242634  0.62763477     0.12500
H495        H  0.14662159  0.86480547  0.62962076     0.12300
H496        H  0.18771660  0.82534618  0.60497211     0.12800
H497        H  0.11240406  0.78906854  0.53598948     0.14800
C498        C  0.47750793  0.88747737  0.63844474    -0.05200
C499        C  0.44992021  0.88582873  0.66058197    -0.05200
C500        C  0.45081348  0.86448320  0.68851743    -0.23300
C501        C  0.47917006  0.84414709  0.69454577     0.18900
C502        C  0.50648521  0.84459485  0.67161549     0.16100
C503        C  0.50553286  0.86639715  0.64380364    -0.18400
C504        C  0.53488975  0.82429719  0.67770112    -0.20200
C505        C  0.53709395  0.80537484  0.70725419    -0.12700
C506        C  0.51073707  0.80604594  0.73079299     0.03900
C507        C  0.48143375  0.82471995  0.72395105    -0.24900
H508        H  0.42809292  0.90192819  0.65699481     0.09000
H509        H  0.42966776  0.86446029  0.70580494     0.12600
H510        H  0.52678979  0.86740769  0.62665724     0.12500
H511        H  0.55601008  0.82426571  0.66038674     0.12300
H512        H  0.56015619  0.79170037  0.71268669     0.12800
H513        H  0.46147756  0.82591287  0.74259304     0.14800
C514        C  0.55344552  0.83434785  0.84317570    -0.05200
C515        C  0.53534456  0.86437713  0.84880246    -0.05200
C516        C  0.54819375  0.88934341  0.86987010    -0.23300
C517        C  0.57958568  0.88478688  0.88524635     0.18900
C518        C  0.59840916  0.85490177  0.87918742     0.16100
C519        C  0.58499877  0.82960507  0.85835883    -0.18400
C520        C  0.63007776  0.85081436  0.89436216    -0.20200
C521        C  0.64243490  0.87562388  0.91617988    -0.12700
C522        C  0.62322957  0.90471676  0.92310704     0.03900
C523        C  0.59207710  0.90935936  0.90716123    -0.24900
H524        H  0.51104447  0.86831068  0.83703118     0.09000
H525        H  0.53356336  0.91215327  0.87419922     0.12600
H526        H  0.59909308  0.80652197  0.85363296     0.12500
H527        H  0.64494184  0.82819932  0.88987233     0.12300
H528        H  0.66641273  0.87168385  0.92855714     0.12800
H529        H  0.57704958  0.93164617  0.91282176     0.14800
C530        C  0.51023012  0.16945519  0.72973194    -0.05200
C531        C  0.54095444  0.15948098  0.71495426    -0.05200
C532        C  0.54144279  0.13975989  0.68571422    -0.23300
C533        C  0.51114806  0.12909569  0.67104960     0.18900
C534        C  0.48017005  0.14057431  0.68469096     0.16100
C535        C  0.47991908  0.16109396  0.71365171    -0.18400
C536        C  0.44988349  0.12965814  0.67034883    -0.20200
C537        C  0.45014020  0.10654924  0.64372463    -0.12700
C538        C  0.48068015  0.09380560  0.63073942     0.03900
C539        C  0.51122407  0.10590696  0.64407696    -0.24900
H540        H  0.56457874  0.16532493  0.72724342     0.09000
H541        H  0.56546445  0.13141409  0.67560969     0.12600
H542        H  0.45614990  0.16809148  0.72528855     0.12500
H543        H  0.42590274  0.13822913  0.68036565     0.12300
H544        H  0.42619499  0.09809043  0.63393878     0.12800
H545        H  0.53497787  0.09648430  0.63424118     0.14800
C546        C  0.60202633  0.07357676  0.93146458    -0.05200
C547        C  0.61979624  0.10366394  0.92603655    -0.05200
C548        C  0.60730681  0.12796833  0.90381998    -0.23300
C549        C  0.57672410  0.12251581  0.88705058     0.18900
C550        C  0.55871994  0.09212642  0.89251645     0.16100
C551        C  0.57152826  0.06785062  0.91470362    -0.18400
C552        C  0.52821985  0.08655456  0.87570373    -0.20200
C553        C  0.51580072  0.11073604  0.85338152    -0.12700
C554        C  0.53346830  0.14090321  0.84795842     0.03900
C555        C  0.56382282  0.14684780  0.86488508    -0.24900
H556        H  0.64323526  0.10831001  0.93913961     0.09000
H557        H  0.62142163  0.15106118  0.89990027     0.12600
H558        H  0.55772973  0.04465574  0.91930276     0.12500
H559        H  0.51413368  0.06344068  0.87963425     0.12300
H560        H  0.49238630  0.10596739  0.84026383     0.12800
H561        H  0.57751342  0.17011609  0.86035995     0.14800
C562        C  0.47644045  0.16723255  0.27561175    -0.05200
C563        C  0.44430363  0.15430896  0.28297092    -0.05200
C564        C  0.43949687  0.13258493  0.31058104    -0.23300
C565        C  0.46686654  0.12311948  0.33105086     0.18900
C566        C  0.49875524  0.13771437  0.32483652     0.16100
C567        C  0.50318760  0.15983333  0.29759066    -0.18400
C568        C  0.52629764  0.12854277  0.34478212    -0.20200
C569        C  0.52287076  0.10395570  0.36965026    -0.12700
C570        C  0.49181993  0.08782401  0.37537881     0.03900
C571        C  0.46348569  0.09831366  0.35652800    -0.24900
H572        H  0.42345513  0.15920201  0.26612650     0.09000
H573        H  0.41475165  0.12190362  0.31491312     0.12600
H574        H  0.52815511  0.16942304  0.29192524     0.12500
H575        H  0.55085369  0.13971198  0.34051667     0.12300
H576        H  0.54499223  0.09724597  0.38403017     0.12800
H577        H  0.43930351  0.08634714  0.36074447     0.14800
C578        C  0.60328022  0.06149738  0.10625987    -0.05200
C579        C  0.57800365  0.04553643  0.12516082    -0.05200
C580        C  0.55742882  0.06424957  0.14671045    -0.23300
C581        C  0.56150911  0.09933006  0.14932098     0.18900
C582        C  0.58781648  0.11547962  0.13151443     0.16100
C583        C  0.60903041  0.09629990  0.11053760    -0.18400
C584        C  0.59134363  0.15070244  0.13375719    -0.20200
C585        C  0.56860679  0.16978976  0.15291939    -0.12700
C586        C  0.54213043  0.15394280  0.17033070     0.03900
C587        C  0.53896796  0.11860219  0.16858407    -0.24900
H588        H  0.57301500  0.01880026  0.12182790     0.09000
H589        H  0.53742953  0.05150365  0.16023569     0.12600
H590        H  0.62834626  0.10866524  0.09570158     0.12500
H591        H  0.61133507  0.16352698  0.12029948     0.12300
H592        H  0.57183568  0.19695754  0.15430140     0.12800
H593        H  0.51835301  0.10616039  0.18148765     0.14800
C594        C  0.51535352  0.79290696  0.28467205    -0.05200
C595        C  0.54266354  0.79307201  0.30706189    -0.05200
C596        C  0.54136584  0.81222949  0.33662201    -0.23300
C597        C  0.51283175  0.83195454  0.34407376     0.18900
C598        C  0.48443638  0.83036178  0.32268826     0.16100
C599        C  0.48580712  0.81066693  0.29319122    -0.18400
C600        C  0.45595483  0.85014427  0.33009886    -0.20200
C601        C  0.45609160  0.87234216  0.35753020    -0.12700
C602        C  0.48477999  0.87545175  0.37795965     0.03900
C603        C  0.51284128  0.85448934  0.37153009    -0.24900
H604        H  0.56595706  0.78030153  0.30040374     0.09000
H605        H  0.56335827  0.81304292  0.35269745     0.12600
H606        H  0.46506893  0.81142980  0.27550225     0.12500
H607        H  0.43390879  0.84919265  0.31410600     0.12300
H608        H  0.43409591  0.88802509  0.36201904     0.12800
H609        H  0.53499890  0.85631265  0.38729506     0.14800
C610        C  0.56225057  0.82779536  0.17578266    -0.05200
C611        C  0.54507402  0.85861314  0.17205600    -0.05200
C612        C  0.55856961  0.88422218  0.15226997    -0.23300
C613        C  0.58964289  0.87946367  0.13619569     0.18900
C614        C  0.60763760  0.84879127  0.14036475     0.16100
C615        C  0.59362849  0.82290741  0.16004589    -0.18400
C616        C  0.63889221  0.84445278  0.12419906    -0.20200
C617        C  0.65147136  0.86976901  0.10305895    -0.12700
C618        C  0.63299138  0.89967353  0.09808883     0.03900
C619        C  0.60246008  0.90459070  0.11521371    -0.24900
H620        H  0.52085191  0.86259141  0.18409332     0.09000
H621        H  0.54456316  0.90761423  0.14927983     0.12600
H622        H  0.60695411  0.79912443  0.16318109     0.12500
H623        H  0.65311612  0.82120757  0.12721127     0.12300
H624        H  0.67492214  0.86562186  0.08966668     0.12800
H625        H  0.58798443  0.92753272  0.11097418     0.14800
C626        C  0.88035629  0.35600881  0.49298825    -0.05200
C627        C  0.87877815  0.33305552  0.46602443    -0.05200
C628        C  0.85421245  0.30788404  0.46507599    -0.23300
C629        C  0.83040008  0.30527834  0.49094489     0.18900
C630        C  0.83074374  0.32890895  0.51766828     0.16100
C631        C  0.85594541  0.35407770  0.51867144    -0.18400
C632        C  0.80675927  0.32590135  0.54354588    -0.20200
C633        C  0.78466912  0.29821916  0.54432638    -0.12700
C634        C  0.78586070  0.27347841  0.51899748     0.03900
C635        C  0.80772044  0.27808571  0.49157731    -0.24900
H636        H  0.89724169  0.33389311  0.44597448     0.09000
H637        H  0.85434012  0.28994612  0.44445133     0.12600
H638        H  0.85675864  0.37186411  0.53940991     0.12500
H639        H  0.80640870  0.34381770  0.56417193     0.12300
H640        H  0.76863282  0.29464408  0.56608474     0.12800
H641        H  0.80930269  0.25861448  0.47238668     0.14800
C642        C  0.87456639  0.60355768  0.48478617    -0.05200
C643        C  0.87071521  0.61979901  0.45362683    -0.05200
C644        C  0.84562461  0.64412972  0.44902763    -0.23300
C645        C  0.82381652  0.65248276  0.47547696     0.18900
C646        C  0.82591041  0.63457283  0.50617525     0.16100
C647        C  0.85131279  0.61013750  0.51063853    -0.18400
C648        C  0.80401090  0.64305866  0.53260163    -0.20200
C649        C  0.78264242  0.67110919  0.52977020    -0.12700
C650        C  0.78254272  0.69061770  0.50035098     0.03900
C651        C  0.80186923  0.68020927  0.47267020    -0.24900
H652        H  0.88804420  0.61474645  0.43314318     0.09000
H653        H  0.84418178  0.65737420  0.42525282     0.12600
H654        H  0.85372011  0.59726089  0.53453351     0.12500
H655        H  0.80505974  0.62949513  0.55621431     0.12300
H656        H  0.76838920  0.67934743  0.55155951     0.12800
H657        H  0.80234542  0.69575252  0.45023764     0.14800
C658        C  0.17348785  0.26425577  0.52792982    -0.05200
C659        C  0.16021696  0.27625778  0.55850456    -0.05200
C660        C  0.13948750  0.30491554  0.55932061    -0.23300
C661        C  0.13112388  0.32159545  0.52942024     0.18900
C662        C  0.14605886  0.31087362  0.49885241     0.16100
C663        C  0.16762685  0.28260130  0.49839874    -0.18400
C664        C  0.13730859  0.32710011  0.46888341    -0.20200
C665        C  0.11263422  0.35234708  0.46884416    -0.12700
C666        C  0.09628120  0.36200374  0.49878523     0.03900
C667        C  0.10656665  0.34735309  0.52924127    -0.24900
H668        H  0.16411875  0.26205838  0.58143598     0.09000
H669        H  0.12841700  0.31277117  0.58300403     0.12600
H670        H  0.17719290  0.27297998  0.47468020     0.12500
H671        H  0.14861520  0.31939462  0.44526006     0.12300
H672        H  0.10580814  0.36357499  0.44505050     0.12800
H673        H  0.09431989  0.35474213  0.55251055     0.14800
C674        C  0.09262747  0.60757313  0.49329913    -0.05200
C675        C  0.09479417  0.62828901  0.46471524    -0.05200
C676        C  0.11869033  0.65409519  0.46287879    -0.23300
C677        C  0.14121328  0.65933035  0.48942066     0.18900
C678        C  0.14083429  0.63708683  0.51726705     0.16100
C679        C  0.11637088  0.61142734  0.51913927    -0.18400
C680        C  0.16362982  0.64220961  0.54365041    -0.20200
C681        C  0.18426574  0.67083602  0.54393779    -0.12700
C682        C  0.18275844  0.69447859  0.51769928     0.03900
C683        C  0.16235664  0.68780688  0.48972809    -0.24900
H684        H  0.07697944  0.62550488  0.44432225     0.09000
H685        H  0.11877739  0.67067169  0.44121956     0.12600
H686        H  0.11523405  0.59513071  0.54099276     0.12500
H687        H  0.16397303  0.62529852  0.56504664     0.12300
H688        H  0.19936815  0.67602894  0.56598253     0.12800
H689        H  0.16057689  0.70641706  0.46980770     0.14800
C690        C  0.87849667  0.48423015  0.62513822    -0.05200
C691        C  0.86674620  0.45409513  0.63984742    -0.05200
C692        C  0.84485655  0.45484534  0.66750218    -0.23300
C693        C  0.83402754  0.48577153  0.68111918     0.18900
C694        C  0.84448798  0.51628537  0.66578774     0.16100
C695        C  0.86651959  0.51533631  0.63787907    -0.18400
C696        C  0.83382071  0.54725617  0.67951235    -0.20200
C697        C  0.81455511  0.54802050  0.70901984    -0.12700
C698        C  0.80508795  0.51791039  0.72518096     0.03900
C699        C  0.81423792  0.48675020  0.71064506    -0.24900
H700        H  0.87507422  0.42972301  0.63057232     0.09000
H701        H  0.83703191  0.43116999  0.67873465     0.12600
H702        H  0.87512516  0.53880777  0.62676978     0.12500
H703        H  0.84151346  0.57093549  0.66820229     0.12300
H704        H  0.80835504  0.57225739  0.72023970     0.12800
H705        H  0.80777572  0.46344628  0.72343809     0.14800
C706        C  0.83069012  0.54544783  0.84370588    -0.05200
C707        C  0.86251204  0.52987955  0.84542802    -0.05200
C708        C  0.88667773  0.54137085  0.86808862    -0.23300
C709        C  0.87950539  0.56882677  0.88923568     0.18900
C710        C  0.84753425  0.58472922  0.88778530     0.16100
C711        C  0.82321270  0.57276188  0.86516482    -0.18400
C712        C  0.84052917  0.61229689  0.90897730    -0.20200
C713        C  0.86480219  0.62360352  0.93176165    -0.12700
C714        C  0.89636779  0.60754224  0.93359876     0.03900
C715        C  0.90367348  0.58035991  0.91208087    -0.24900
H716        H  0.86862127  0.50867470  0.82922118     0.09000
H717        H  0.91100989  0.52885956  0.86899168     0.12600
H718        H  0.79879732  0.58508746  0.86370758     0.12500
H719        H  0.81620027  0.62481689  0.90820565     0.12300
H720        H  0.85878269  0.64440208  0.94851125     0.12800
H721        H  0.92788271  0.56765183  0.91385605     0.14800
C722        C  0.15810193  0.49373696  0.73518884    -0.05200
C723        C  0.15570307  0.46007560  0.72402524    -0.05200
C724        C  0.13738113  0.45204914  0.69483214    -0.23300
C725        C  0.12113026  0.47756847  0.67620642     0.18900
C726        C  0.12508777  0.51163861  0.68633532     0.16100
C727        C  0.14348185  0.51944629  0.71550662    -0.18400
C728        C  0.10945448  0.53738911  0.66792475    -0.20200
C729        C  0.08904033  0.52956973  0.64050885    -0.12700
C730        C  0.08339313  0.49578013  0.63074454     0.03900
C731        C  0.10019246  0.46975074  0.64840508    -0.24900
H732        H  0.16639358  0.43981040  0.73890842     0.09000
H733        H  0.13495376  0.42576410  0.68749697     0.12600
H734        H  0.14512377  0.54552385  0.72387931     0.12500
H735        H  0.11242212  0.56366178  0.67516278     0.12300
H736        H  0.07693905  0.55026492  0.62736358     0.12800
H737        H  0.09640886  0.44361753  0.64111842     0.14800
C738        C  0.13175475  0.54289552  0.84720619    -0.05200
C739        C  0.09939453  0.52874246  0.84959682    -0.05200
C740        C  0.07526549  0.54262069  0.87113972    -0.23300
C741        C  0.08292809  0.57113336  0.89055316     0.18900
C742        C  0.11520676  0.58603525  0.88812075     0.16100
C743        C  0.13959409  0.57160377  0.86665072    -0.18400
C744        C  0.12247113  0.61488918  0.90742105    -0.20200
C745        C  0.09829725  0.62819450  0.92955542    -0.12700
C746        C  0.06664286  0.61265928  0.93294975     0.03900
C747        C  0.05899641  0.58447181  0.91289742    -0.24900
H748        H  0.09292898  0.50648670  0.83508838     0.09000
H749        H  0.05064475  0.53091757  0.87275127     0.12600
H750        H  0.16443698  0.58281122  0.86477354     0.12500
H751        H  0.14697775  0.62681277  0.90579823     0.12300
H752        H  0.10462317  0.64991998  0.94489188     0.12800
H753        H  0.03473251  0.57218519  0.91562928     0.14800
C754        C  0.79959070  0.47224320  0.27494197    -0.05200
C755        C  0.82098201  0.44392199  0.27364518    -0.05200
C756        C  0.84430675  0.43802001  0.29935589    -0.23300
C757        C  0.84689686  0.46076179  0.32636010     0.18900
C758        C  0.82417718  0.48837814  0.32853410     0.16100
C759        C  0.80036960  0.49358730  0.30310113    -0.18400
C760        C  0.82725757  0.51181443  0.35475102    -0.20200
C761        C  0.85384991  0.50915961  0.37743833    -0.12700
C762        C  0.87734897  0.48262537  0.37478572     0.03900
C763        C  0.87306022  0.45769866  0.34998436    -0.24900
H764        H  0.82126460  0.42778013  0.25162573     0.09000
H765        H  0.86157662  0.41682981  0.29713589     0.12600
H766        H  0.78440673  0.51592673  0.30366748     0.12500
H767        H  0.80999920  0.53303722  0.35683311     0.12300
H768        H  0.85647135  0.52835536  0.39670535     0.12800
H769        H  0.89127412  0.43729865  0.34775032     0.14800
C770        C  0.80761494  0.54968937  0.17811971    -0.05200
C771        C  0.79207463  0.57466866  0.15826939    -0.05200
C772        C  0.81144791  0.59567372  0.13757866    -0.23300
C773        C  0.84660006  0.59171899  0.13614235     0.18900
C774        C  0.86236642  0.56735417  0.15684496     0.16100
C775        C  0.84290579  0.54683844  0.17775669    -0.18400
C776        C  0.89726175  0.56252576  0.15509362    -0.20200
C777        C  0.91623271  0.58019847  0.13157916    -0.12700
C778        C  0.90083051  0.60361215  0.10990476     0.03900
C779        C  0.86612376  0.61033189  0.11322589    -0.24900
H780        H  0.76492355  0.57760572  0.15837995     0.09000
H781        H  0.79887484  0.61423937  0.12196014     0.12600
H782        H  0.85524888  0.52722315  0.19228387     0.12500
H783        H  0.90967956  0.54397361  0.17086476     0.12300
H784        H  0.94288270  0.57450891  0.12932281     0.12800
H785        H  0.85416297  0.62847222  0.09664335     0.14800
C786        C  0.18257523  0.51503335  0.28391156    -0.05200
C787        C  0.18577180  0.53752388  0.31102007    -0.05200
C788        C  0.16525705  0.53424359  0.33946176    -0.23300
C789        C  0.14087233  0.50863343  0.34102697     0.18900
C790        C  0.13872788  0.48473703  0.31462656     0.16100
C791        C  0.15966571  0.48807439  0.28622426    -0.18400
C792        C  0.11444621  0.45902439  0.31632770    -0.20200
C793        C  0.09173715  0.45770706  0.34328938    -0.12700
C794        C  0.09253686  0.48238208  0.36869791     0.03900
C795        C  0.11760558  0.50744802  0.36773439    -0.24900
H796        H  0.20272443  0.55889072  0.30924928     0.09000
H797        H  0.16736717  0.55269300  0.35950742     0.12600
H798        H  0.15653689  0.47120681  0.26495261     0.12500
H799        H  0.11247124  0.44043302  0.29639770     0.12300
H800        H  0.07261335  0.43820707  0.34355060     0.12800
H801        H  0.11855670  0.52641023  0.38742255     0.14800
C802        C  0.06326524  0.61694811  0.10974389    -0.05200
C803        C  0.05160113  0.59118550  0.13109945    -0.05200
C804        C  0.07304393  0.57614439  0.15434578    -0.23300
C805        C  0.10682874  0.58599766  0.15612453     0.18900
C806        C  0.11875925  0.61255050  0.13556560     0.16100
C807        C  0.09659167  0.62854402  0.11306880    -0.18400
C808        C  0.15296904  0.62144850  0.13681043    -0.20200
C809        C  0.17521152  0.60368163  0.15767674    -0.12700
C810        C  0.16345905  0.57714594  0.17801441     0.03900
C811        C  0.12909358  0.56874962  0.17726445    -0.24900
H812        H  0.02613093  0.58164541  0.12878494     0.09000
H813        H  0.06354952  0.55582471  0.16994533     0.12600
H814        H  0.10569483  0.64842253  0.09668021     0.12500
H815        H  0.16264126  0.64162427  0.12114968     0.12300
H816        H  0.20157982  0.61068608  0.15797856     0.12800
H817        H  0.11985303  0.54783225  0.19225048     0.14800
C818        C  0.47164744  0.25709697  0.18295005    -0.05200
C819        C  0.44130762  0.26062738  0.16511778    -0.05200
C820        C  0.43642853  0.28803308  0.14309478    -0.23300
C821        C  0.46213389  0.31198858  0.13800506     0.18900
C822        C  0.49207226  0.30928147  0.15705529     0.16100
C823        C  0.49638563  0.28225780  0.17960621    -0.18400
C824        C  0.51821758  0.33239429  0.15174605    -0.20200
C825        C  0.51558794  0.35694739  0.12669696    -0.12700
C826        C  0.48659799  0.35941085  0.10656662     0.03900
C827        C  0.45935467  0.33742708  0.11308755    -0.24900
H828        H  0.42230137  0.24106740  0.16660881     0.09000
H829        H  0.41329078  0.28948490  0.12875370     0.12600
H830        H  0.52019688  0.27922311  0.19262574     0.12500
H831        H  0.54127471  0.33076224  0.16621701     0.12300
H832        H  0.53669837  0.37378334  0.12273409     0.12800
H833        H  0.43688708  0.33894936  0.09771847     0.14800
C834        C  0.50831669  0.61696057  0.09893967    -0.05200
C835        C  0.54205406  0.62734572  0.10218629    -0.05200
C836        C  0.55094591  0.65319087  0.12419328    -0.23300
C837        C  0.52636046  0.66923039  0.14378760     0.18900
C838        C  0.49236420  0.65877432  0.14165748     0.16100
C839        C  0.48342806  0.63265471  0.11903757    -0.18400
C840        C  0.46807689  0.67513823  0.16180745    -0.20200
C841        C  0.47725966  0.70229256  0.18272582    -0.12700
C842        C  0.51082979  0.71354216  0.18375622     0.03900
C843        C  0.53530079  0.69622024  0.16478827    -0.24900
H844        H  0.56181823  0.61578814  0.08721789     0.09000
H845        H  0.57710688  0.66089577  0.12559421     0.12600
H846        H  0.45737208  0.62479381  0.11696379     0.12500
H847        H  0.44189043  0.66751345  0.16076249     0.12300
H848        H  0.45792456  0.71546776  0.19691336     0.12800
H849        H  0.56130942  0.70458702  0.16557967     0.14800
C850        C  0.50076749  0.61299937  0.89311829    -0.05200
C851        C  0.53299303  0.61561636  0.87855470    -0.05200
C852        C  0.54086422  0.64226422  0.85701961    -0.23300
C853        C  0.51670911  0.66704415  0.84971851     0.18900
C854        C  0.48365421  0.66394705  0.86283665     0.16100
C855        C  0.47576958  0.63671123  0.88429680    -0.18400
C856        C  0.45962454  0.68903552  0.85547024    -0.20200
C857        C  0.46873436  0.71758950  0.83673312    -0.12700
C858        C  0.50187110  0.72133851  0.82493131     0.03900
C859        C  0.52556001  0.69566500  0.83084027    -0.24900
H860        H  0.55257646  0.59745988  0.88459114     0.09000
H861        H  0.56620537  0.64407894  0.84696057     0.12600
H862        H  0.45084146  0.63498233  0.89533225     0.12500
H863        H  0.43416639  0.68717842  0.86519820     0.12300
H864        H  0.45033473  0.73747286  0.83266866     0.12800
H865        H  0.55125690  0.69878558  0.82202853     0.14800
C866        C  0.71340012  0.51289108  0.81475705    -0.05200
C867        C  0.69259165  0.54152299  0.81782993    -0.05200
C868        C  0.66242407  0.53999325  0.83604716    -0.23300
C869        C  0.65276592  0.50984575  0.85195156     0.18900
C870        C  0.67275838  0.48045016  0.84785242     0.16100
C871        C  0.70297596  0.48214322  0.82917937    -0.18400
C872        C  0.66303465  0.45039659  0.86397292    -0.20200
C873        C  0.63484611  0.44991571  0.88531813    -0.12700
C874        C  0.61591245  0.47947259  0.89100523     0.03900
C875        C  0.62442538  0.50908854  0.87323606    -0.24900
H876        H  0.70063575  0.56557210  0.80758734     0.09000
H877        H  0.64742277  0.56278605  0.83894401     0.12600
H878        H  0.71937644  0.46019944  0.82757527     0.12500
H879        H  0.67788590  0.42753157  0.86096729     0.12300
H880        H  0.62870255  0.42675864  0.89845502     0.12800
H881        H  0.60974717  0.53198237  0.87681046     0.14800
C882        C  0.47942171  0.25147305  0.82388076    -0.05200
C883        C  0.45096219  0.25095978  0.84499229    -0.05200
C884        C  0.44268373  0.27903695  0.86496826    -0.23300
C885        C  0.46334545  0.30780648  0.86492043     0.18900
C886        C  0.49106283  0.30909629  0.84244376     0.16100
C887        C  0.49855494  0.28117961  0.82167248    -0.18400
C888        C  0.51238453  0.33723641  0.84290919    -0.20200
C889        C  0.50788102  0.36261429  0.86693781    -0.12700
C890        C  0.48161389  0.36084878  0.89064096     0.03900
C891        C  0.45837400  0.33410631  0.88855563    -0.24900
H892        H  0.43620954  0.22806206  0.84735866     0.09000
H893        H  0.42132689  0.27743931  0.88190231     0.12600
H894        H  0.52096404  0.28143027  0.80601573     0.12500
H895        H  0.53361905  0.33880101  0.82581178     0.12300
H896        H  0.52584867  0.38318145  0.86777018     0.12800
H897        H  0.43819718  0.33238016  0.90687962     0.14800
C898        C  0.35166156  0.49944754  0.90341923    -0.05200
C899        C  0.33862984  0.53251199  0.90108002    -0.05200
C900        C  0.31022681  0.53958779  0.88169876    -0.23300
C901        C  0.29412515  0.51384815  0.86374271     0.18900
C902        C  0.30726423  0.48057346  0.86463992     0.16100
C903        C  0.33597259  0.47343926  0.88470272    -0.18400
C904        C  0.29090134  0.45517121  0.84595476    -0.20200
C905        C  0.26117396  0.46244031  0.82795959    -0.12700
C906        C  0.24715964  0.49519846  0.82840964     0.03900
C907        C  0.26449678  0.52088178  0.84570699    -0.24900
H908        H  0.35001797  0.55310395  0.91493931     0.09000
H909        H  0.30054787  0.56525910  0.88115309     0.12600
H910        H  0.34581157  0.44786559  0.88594018     0.12500
H911        H  0.30058068  0.42950575  0.84596057     0.12300
H912        H  0.24831227  0.44214944  0.81498107     0.12800
H913        H  0.25422150  0.54634881  0.84596955     0.14800
C914        C  0.26926545  0.50992464  0.19017805    -0.05200
C915        C  0.27218014  0.47579296  0.18070642    -0.05200
C916        C  0.29859787  0.46508177  0.15966721    -0.23300
C917        C  0.32246814  0.48840197  0.14774048     0.18900
C918        C  0.32067299  0.52239362  0.15886992     0.16100
C919        C  0.29421591  0.53286371  0.18000182    -0.18400
C920        C  0.34429435  0.54585976  0.14724401    -0.20200
C921        C  0.36821748  0.53637115  0.12326643    -0.12700
C922        C  0.36925432  0.50317852  0.11043856     0.03900
C923        C  0.34699311  0.47887923  0.12368275    -0.24900
H924        H  0.25295465  0.45784143  0.18803776     0.09000
H925        H  0.29953921  0.43889232  0.15162271     0.12600
H926        H  0.29194735  0.55927902  0.18713560     0.12500
H927        H  0.34351631  0.57190897  0.15578078     0.12300
H928        H  0.38537349  0.55547790  0.11395582     0.12800
H929        H  0.34758853  0.45319411  0.11413529     0.14800
C930        C  0.71219831  0.46892472  0.18268219    -0.05200
C931        C  0.71440378  0.44113556  0.16078298    -0.05200
C932        C  0.68860153  0.43482402  0.13758039    -0.23300
C933        C  0.66072661  0.45678704  0.13550531     0.18900
C934        C  0.65768777  0.48364801  0.15889789     0.16100
C935        C  0.68309439  0.48909045  0.18266948    -0.18400
C936        C  0.63071338  0.50640815  0.15644423    -0.20200
C937        C  0.60824727  0.50415817  0.12968581    -0.12700
C938        C  0.61170567  0.47857524  0.10541810     0.03900
C939        C  0.63716332  0.45397940  0.10916587    -0.24900
H940        H  0.73706492  0.42577520  0.16009881     0.09000
H941        H  0.69147655  0.41411875  0.11992080     0.12600
H942        H  0.68176008  0.51095001  0.19915103     0.12500
H943        H  0.62796777  0.52700827  0.17425633     0.12300
H944        H  0.58850946  0.52302999  0.12749890     0.12800
H945        H  0.64003617  0.43427101  0.09039190     0.14800
loop_ 
_geom_bond_atom_site_label_1 
_geom_bond_atom_site_label_2 
_geom_bond_distance 
_geom_bond_site_symmetry_2 
_ccdc_geom_bond_type 
C1           N19   1.357       .  A
C1           C38   1.461       .  S
C1          C826   1.492       .  S
N2           N19   1.333       .  A
N2           N24   1.323       .  A
N2          Co39   2.113       .  S
C3           N28   1.337       .  A
C3           C41   1.457       .  S
C3           H48   1.081       .  S
H4           C45   1.081       .  S
C5           N29   1.351       .  A
C5            C9   1.471       .  S
C5           H34   1.081       .  S
Co6          N24   2.095   1_556  S
Co6          N14   2.091   1_556  S
Co6          N46   2.079       .  S
Co6          N22   2.108       .  S
Co6         Cl50   2.456       .  S
N7           C45   1.338       .  A
N7           N14   1.319       .  A
N7           Co8   2.083   1_554  S
Co8          N11   2.069   1_556  S
Co8          N28   2.069       .  S
Co8          N15   2.077       .  S
Co8         Cl50   2.447       .  S
C9           N47   1.347       .  A
C9          C834   1.486       .  S
N10          N17   1.323       .  A
N10          N40   1.321       .  A
N10         Co43   2.081   1_554  S
N11          N29   1.317       .  A
N11          N47   1.320       .  A
N12          C41   1.359       .  A
N12          N22   1.331       .  A
H13          C38   1.081       .  S
N14          N35   1.329       .  A
N15          N33   1.319       .  A
N15          N20   1.321       .  A
C16          N20   1.347       .  A
C16          C44   1.469       .  S
C16         C850   1.483       .  S
N17          C32   1.351       .  A
N17         Co39   2.117       .  S
C18          N46   1.334       .  A
C18          C21   1.453       .  S
C18          H52   1.081       .  S
C21          N42   1.358       .  A
C21         C890   1.484       .  S
N22          N28   1.317       .  A
N23          C49   1.351       .  A
N23          N25   1.323       .  A
N23         Co39   2.114   1_556  S
N24          C38   1.339       .  A
N25          N53   1.324       .  A
N25         Co43   2.097       .  S
H26          C49   1.081       .  S
H27          C44   1.081       .  S
N29         Co43   2.104   1_554  S
N30          N42   1.333       .  A
N30          N46   1.323       .  A
N30         Co39   2.118   1_556  S
C31          N35   1.352       .  A
C31          C45   1.457       .  S
C31         C938   1.477       .  S
C32          C51   1.472       .  S
C32          H36   1.081       .  S
N33          C44   1.348       .  A
N33         Co43   2.099       .  S
C37          N53   1.352       .  A
C37          C49   1.471       .  S
C37         C898   1.496       .  S
Co39        Cl50   2.469   1_554  S
N40          C51   1.347       .  A
C41         C874   1.488       .  S
Co43        Cl50   2.456       .  S
C51         C922   1.486       .  S
C54         C914   1.483       .  S
C54          C55   1.407       .  A
C54          C59   1.412       .  A
C55          H60   1.084       .  S
C55          C56   1.402       .  A
C56         C810   1.483       .  S
C56          C57   1.400       .  A
C57          H61   1.085       .  S
C57          C58   1.399       .  A
C58         C786   1.477       .  S
C58          C59   1.409       .  A
C59          H62   1.083       .  S
C63         C930   1.474       .  S
C63          C64   1.404       .  A
C63          C68   1.407       .  A
C64          H69   1.084       .  S
C64          C65   1.400       .  A
C65         C770   1.484       .  S
C65          C66   1.399       .  A
C66          H70   1.084       .  S
C66          C67   1.400       .  A
C67         C754   1.473       .  S
C67          C68   1.407       .  A
C68          H71   1.083       .  S
C72         C722   1.495       .  S
C72          C73   1.404       .  A
C72          C77   1.418       .  A
C73          H78   1.084       .  S
C73          C74   1.399       .  A
C74         C738   1.484       .  S
C74          C75   1.400       .  A
C75          H79   1.084       .  S
C75          C76   1.409       .  A
C76         C906   1.498       .  S
C76          C77   1.419       .  A
C77          H80   1.083       .  S
C81         C698   1.485       .  S
C81          C82   1.401       .  A
C81          C86   1.414       .  A
C82          H87   1.085       .  S
C82          C83   1.399       .  A
C83         C706   1.479       .  S
C83          C84   1.400       .  A
C84          H88   1.085       .  S
C84          C85   1.403       .  A
C85         C866   1.482       .  S
C85          C86   1.414       .  A
C86          H89   1.083       .  S
N90          C95   1.352   1_655  A
N90          C94   1.352       .  A
N90         H122   1.036       .  S
N91          C98   1.349   1_554  A
N91          C99   1.352       .  A
N92          C97   1.349   1_655  A
N92          C96   1.349       .  A
N92         H123   1.037       .  S
N93         C100   1.353   1_554  A
N93         C101   1.354       .  A
C94         C102   1.387       .  A
C94         C110   1.414       .  A
C95         C111   1.414       .  A
C95         C103   1.386   1_455  A
C96         C104   1.386       .  A
C96         C113   1.409       .  A
C97         C112   1.410       .  A
C97         C105   1.387   1_455  A
C98         C110   1.410       .  A
C98         C106   1.386   1_556  A
C99         C113   1.412       .  A
C99         C107   1.387       .  A
C100        C108   1.386   1_556  A
C100        C111   1.414       .  A
C101        C109   1.387       .  A
C101        C112   1.415       .  A
C102        H114   1.082       .  S
C102        C103   1.379       .  A
C103        H115   1.082   1_655  S
C104        H116   1.082       .  S
C104        C105   1.378       .  A
C105        H117   1.082   1_655  S
C106        H118   1.082   1_554  S
C106        C107   1.371       .  A
C107        H119   1.081       .  S
C108        H120   1.082   1_554  S
C108        C109   1.369       .  A
C109        H121   1.081       .  S
C110        C714   1.483       .  S
C111        C746   1.491       .  S
C112        C802   1.489       .  S
C113        C778   1.488       .  S
C124        N142   1.353       .  A
C124        C161   1.460       .  S
C124        C794   1.481       .  S
N125        N142   1.328       .  A
N125        N147   1.318       .  A
N125       Co162   2.095   1_455  S
C126        N151   1.345       .  A
C126        C164   1.466       .  S
C126        H171   1.081       .  S
H127        C168   1.081       .  S
C128        N152   1.354       .  A
C128        C132   1.476       .  S
C128        H157   1.081       .  S
Co129       N147   2.084   1_655  S
Co129       N137   2.068   1_655  S
Co129       N169   2.076       .  S
Co129       N145   2.069       .  S
Co129      Cl173   2.448       .  S
N130        C168   1.347       .  A
N130        N137   1.320       .  A
N130       Co131   2.107   1_455  S
Co131       N134   2.080   1_655  S
Co131       N151   2.090       .  S
Co131       N138   2.105       .  S
Co131      Cl173   2.452       .  S
C132        N170   1.348       .  A
C132        C730   1.496       .  S
N133        N140   1.322       .  A
N133        N163   1.328       .  A
N133       Co166   2.104   1_455  S
N134        N152   1.321       .  A
N134        N170   1.321       .  A
N135        C164   1.345       .  A
N135        N145   1.320       .  A
H136        C161   1.081       .  S
N137        N158   1.322       .  A
N138        N156   1.321       .  A
N138        N143   1.329       .  A
C139        N143   1.356       .  A
C139        C167   1.466       .  S
C139        C690   1.494       .  S
N140        C155   1.335       .  A
N140       Co162   2.075   1_455  S
C141        N169   1.337       .  A
C141        C144   1.454       .  S
C141        H175   1.081       .  S
C144        N165   1.353       .  A
C144        C762   1.473       .  S
N145        N151   1.318       .  A
N146        C172   1.338       .  A
N146        N148   1.321       .  A
N146       Co162   2.080       .  S
N147        C161   1.342       .  A
N148        N176   1.331       .  A
N148       Co166   2.113       .  S
H149        C172   1.081       .  S
H150        C167   1.081       .  S
N152       Co166   2.122   1_455  S
N153        N165   1.328       .  A
N153        N169   1.319       .  A
N153       Co162   2.091       .  S
C154        N158   1.346       .  A
C154        C168   1.466       .  S
C154        C674   1.478       .  S
C155        C174   1.457       .  S
C155        H159   1.081       .  S
N156        C167   1.342       .  A
N156       Co166   2.097       .  S
C160        N176   1.356       .  A
C160        C172   1.457       .  S
C160        C626   1.484       .  S
Co162      Cl173   2.457       .  S
N163        C174   1.355       .  A
C164        C642   1.475       .  S
Co166      Cl173   2.459       .  S
C174        C666   1.481       .  S
C177        C594   1.477       .  S
C177        C178   1.412       .  A
C177        C182   1.398       .  A
C178        H183   1.083       .  S
C178        C179   1.416       .  A
C179        C842   1.488       .  S
C179        C180   1.408       .  A
C180        H184   1.084       .  S
C180        C181   1.396       .  A
C181        C610   1.470       .  S
C181        C182   1.393       .  A
C182        H185   1.085       .  S
C186        C818   1.487       .  S
C186        C187   1.403       .  A
C186        C191   1.418       .  A
C187        H192   1.084       .  S
C187        C188   1.398       .  A
C188        C586   1.482       .  S
C188        C189   1.398       .  A
C189        H193   1.084       .  S
C189        C190   1.403       .  A
C190        C562   1.491       .  S
C190        C191   1.418       .  A
C191        H194   1.083       .  S
C195        C882   1.483       .  S
C195        C196   1.404       .  A
C195        C200   1.414       .  A
C196        H201   1.085       .  S
C196        C197   1.396       .  A
C197        C554   1.468       .  S
C197        C198   1.394       .  A
C198        H202   1.085       .  S
C198        C199   1.402       .  A
C199        C530   1.483       .  S
C199        C200   1.414       .  A
C200        H203   1.083       .  S
C204        C506   1.470       .  S
C204        C205   1.406       .  A
C204        C209   1.398       .  A
C205        H210   1.083       .  S
C205        C206   1.408       .  A
C206        C858   1.475       .  S
C206        C207   1.405       .  A
C207        H211   1.084       .  S
C207        C208   1.400       .  A
C208        C514   1.470       .  S
C208        C209   1.395       .  A
C209        H212   1.085       .  S
N213        C218   1.353       .  A
N213        C217   1.352   1_554  A
N213        H245   1.041       .  S
N214        C221   1.350   1_565  A
N214        C222   1.350       .  A
N215        C220   1.354       .  A
N215        C219   1.354   1_554  A
N215        H246   1.042       .  S
N216        C223   1.349   1_565  A
N216        C224   1.348       .  A
C217        C225   1.385   1_556  A
C217        C233   1.408       .  A
C218        C234   1.415       .  A
C218        C226   1.390       .  A
C219        C227   1.387       .  A
C219        C236   1.414       .  A
C220        C235   1.414       .  A
C220        C228   1.388       .  A
C221        C233   1.408       .  A
C221        C229   1.385       .  A
C222        C236   1.409       .  A
C222        C230   1.386       .  A
C223        C231   1.385       .  A
C223        C234   1.408       .  A
C224        C232   1.386       .  A
C224        C235   1.408       .  A
C225        H237   1.082   1_554  S
C225        C226   1.371       .  A
C226        H238   1.082       .  S
C227        H239   1.082       .  S
C227        C228   1.370   1_556  A
C228        H240   1.082       .  S
C229        H241   1.082       .  S
C229        C230   1.372   1_545  A
C230        H242   1.082       .  S
C231        H243   1.082       .  S
C231        C232   1.373   1_545  A
C232        H244   1.083       .  S
C233        C546   1.478       .  S
C234        C578   1.484       .  S
C235        C618   1.482       .  S
C236        C522   1.484       .  S
C247        C682   1.474       .  S
C247        C248   1.409       .  A
C247        C252   1.400       .  A
C248        H253   1.083       .  S
C248        C249   1.411       .  A
C249        C474   1.479       .  S
C249        C250   1.404       .  A
C250        H254   1.084       .  S
C250        C251   1.400       .  A
C251        C490   1.478       .  S
C251        C252   1.397       .  A
C252        H255   1.085       .  S
C256        C434   1.479       .  S
C256        C257   1.415       .  A
C256        C261   1.403       .  A
C257        H262   1.083       .  S
C257        C258   1.413       .  A
C258        C634   1.479       .  S
C258        C259   1.399       .  A
C259        H263   1.085       .  S
C259        C260   1.393       .  A
C260        C450   1.473       .  S
C260        C261   1.397       .  A
C261        H264   1.085       .  S
C265        C658   1.477       .  S
C265        C266   1.400       .  A
C265        C270   1.410       .  A
C266        H271   1.085       .  S
C266        C267   1.395       .  A
C267        C426   1.474       .  S
C267        C268   1.398       .  A
C268        H272   1.084       .  S
C268        C269   1.405       .  A
C269        C410   1.476       .  S
C269        C270   1.410       .  A
C270        H273   1.083       .  S
C274        C370   1.473       .  S
C274        C275   1.403       .  A
C274        C279   1.408       .  A
C275        H280   1.085       .  S
C275        C276   1.396       .  A
C276        C386   1.473       .  S
C276        C277   1.395       .  A
C277        H281   1.085       .  S
C277        C278   1.401       .  A
C278        C650   1.469       .  S
C278        C279   1.407       .  A
C279        H282   1.083       .  S
N283        C288   1.353       .  A
N283        C287   1.350   1_565  A
N283        H315   1.040       .  S
N284        C291   1.351       .  A
N284        C292   1.351   1_655  A
N285        C290   1.354       .  A
N285        C289   1.353       .  A
N285        H316   1.041       .  S
N286        C293   1.348       .  A
N286        C294   1.348       .  A
C287        C295   1.388       .  A
C287        C303   1.411       .  A
C288        C304   1.411       .  A
C288        C296   1.387       .  A
C289        C297   1.387       .  A
C289        C306   1.414   1_565  A
C290        C305   1.415       .  A
C290        C298   1.387       .  A
C291        C303   1.411       .  A
C291        C299   1.386       .  A
C292        C306   1.413       .  A
C292        C300   1.386       .  A
C293        C301   1.385       .  A
C293        C304   1.406       .  A
C294        C302   1.387       .  A
C294        C305   1.408   1_655  A
C295        H307   1.082       .  S
C295        C296   1.371   1_545  A
C296        H308   1.082       .  S
C297        H309   1.082       .  S
C297        C298   1.372       .  A
C298        H310   1.082       .  S
C299        H311   1.082       .  S
C299        C300   1.374   1_655  A
C300        H312   1.082       .  S
C301        H313   1.083       .  S
C301        C302   1.372       .  A
C302        H314   1.082       .  S
C303        C458   1.480       .  S
C304        C394   1.481       .  S
C305        C482   1.485       .  S
C306        C418   1.489       .  S
C317        N335   1.353       .  A
C317        C354   1.464       .  S
C317        C602   1.486       .  S
N318        N335   1.326       .  A
N318        N340   1.321       .  A
N318       Co355   2.100       .  S
C319        N344   1.342       .  A
C319        C357   1.462       .  S
C319        H364   1.081       .  S
H320        C361   1.081       .  S
C321        N345   1.339       .  A
C321        C325   1.458       .  S
C321        H350   1.081       .  S
Co322       N340   2.093       .  S
Co322       N330   2.101       .  S
Co322       N362   2.097   1_565  S
Co322       N338   2.100   1_565  S
Co322      Cl366   2.448       .  S
N323        C361   1.337       .  A
N323        N330   1.320       .  A
N323       Co324   2.083       .  S
Co324       N327   2.092       .  S
Co324       N344   2.085   1_565  S
Co324       N331   2.096   1_565  S
Co324      Cl366   2.460       .  S
C325        N363   1.352       .  A
C325        C498   1.476       .  S
N326        N333   1.321       .  A
N326        N356   1.321       .  A
N326       Co359   2.080       .  S
N327        N345   1.318       .  A
N327        N363   1.326       .  A
N328        C357   1.353       .  A
N328        N338   1.327       .  A
H329        C354   1.081       .  S
N330        N351   1.330       .  A
N331        N349   1.319       .  A
N331        N336   1.328       .  A
C332        N336   1.355       .  A
C332        C360   1.463       .  S
C332        C538   1.489       .  S
N333        C348   1.349       .  A
N333       Co355   2.107       .  S
C334        N362   1.339       .  A
C334        C337   1.464       .  S
C334        H368   1.081       .  S
C337        N358   1.357       .  A
C337        C570   1.494       .  S
N338        N344   1.320       .  A
N339        C365   1.351       .  A
N339        N341   1.320       .  A
N339       Co355   2.106   1_545  S
N340        C354   1.343       .  A
N341        N369   1.318       .  A
N341       Co359   2.069   1_545  S
H342        C365   1.081       .  S
H343        C360   1.081       .  S
N345       Co359   2.074       .  S
N346        N358   1.332       .  A
N346        N362   1.322       .  A
N346       Co355   2.107   1_545  S
C347        N351   1.355       .  A
C347        C361   1.460       .  S
C347        C378   1.486       .  S
C348        C367   1.469       .  S
C348        H352   1.081       .  S
N349        C360   1.340       .  A
N349       Co359   2.086   1_545  S
C353        N369   1.345       .  A
C353        C365   1.472       .  S
C353        C402   1.483       .  S
Co355      Cl366   2.475       .  S
N356        C367   1.347       .  A
C357        C442   1.485       .  S
Co359      Cl366   2.437       .  S
C367        C466   1.484       .  S
C370        C371   1.403       .  A
C370        C375   1.401       .  A
C371        H380   1.083       .  S
C371        C372   1.402       .  A
C372        H381   1.083       .  S
C372        C373   1.406       .  A
C373        C379   1.411       .  A
C373        C374   1.415       .  A
C374        C376   1.398       .  A
C374        C375   1.401       .  A
C375        H382   1.085       .  S
C376        H383   1.084       .  S
C376        C377   1.393       .  A
C377        H384   1.081       .  S
C377        C378   1.407       .  A
C378        C379   1.409       .  A
C379        H385   1.084       .  S
C386        C387   1.403       .  A
C386        C391   1.404       .  A
C387        H396   1.083       .  S
C387        C388   1.394       .  A
C388        H397   1.084       .  S
C388        C389   1.401       .  A
C389        C395   1.397       .  A
C389        C390   1.414       .  A
C390        C392   1.404       .  A
C390        C391   1.401       .  A
C391        H398   1.084       .  S
C392        H399   1.083       .  S
C392        C393   1.398       .  A
C393        H400   1.083       .  S
C393        C394   1.402       .  A
C394        C395   1.402       .  A
C395        H401   1.085       .  S
C402        C403   1.407       .  A
C402        C407   1.408       .  A
C403        H412   1.083       .  S
C403        C404   1.392       .  A
C404        H413   1.084       .  S
C404        C405   1.397       .  A
C405        C411   1.403       .  A
C405        C406   1.416       .  A
C406        C408   1.405       .  A
C406        C407   1.413       .  A
C407        H414   1.084       .  S
C408        H415   1.083       .  S
C408        C409   1.403       .  A
C409        H416   1.083       .  S
C409        C410   1.404       .  A
C410        C411   1.400       .  A
C411        H417   1.085       .  S
C418        C419   1.405       .  A
C418        C423   1.404       .  A
C419        H428   1.083       .  S
C419        C420   1.398       .  A
C420        H429   1.083       .  S
C420        C421   1.402       .  A
C421        C427   1.405       .  A
C421        C422   1.416       .  A
C422        C424   1.400       .  A
C422        C423   1.402       .  A
C423        H430   1.084       .  S
C424        H431   1.084       .  S
C424        C425   1.394       .  A
C425        H432   1.083       .  S
C425        C426   1.404       .  A
C426        C427   1.403       .  A
C427        H433   1.084       .  S
C434        C435   1.403       .  A
C434        C439   1.406       .  A
C435        H444   1.083       .  S
C435        C436   1.401       .  A
C436        H445   1.084       .  S
C436        C437   1.405       .  A
C437        C443   1.409       .  A
C437        C438   1.414       .  A
C438        C440   1.403       .  A
C438        C439   1.407       .  A
C439        H446   1.084       .  S
C440        H447   1.084       .  S
C440        C441   1.399       .  A
C441        H448   1.083       .  S
C441        C442   1.405       .  A
C442        C443   1.409       .  A
C443        H449   1.083       .  S
C450        C451   1.404       .  A
C450        C455   1.403       .  A
C451        H460   1.083       .  S
C451        C452   1.393       .  A
C452        H461   1.084       .  S
C452        C453   1.400       .  A
C453        C459   1.398       .  A
C453        C454   1.416       .  A
C454        C456   1.402       .  A
C454        C455   1.402       .  A
C455        H462   1.084       .  S
C456        H463   1.084       .  S
C456        C457   1.397       .  A
C457        H464   1.083       .  S
C457        C458   1.404       .  A
C458        C459   1.401       .  A
C459        H465   1.085       .  S
C466        C467   1.406       .  A
C466        C471   1.408       .  A
C467        H476   1.083       .  S
C467        C468   1.395       .  A
C468        H477   1.084       .  S
C468        C469   1.399       .  A
C469        C475   1.404       .  A
C469        C470   1.415       .  A
C470        C472   1.406       .  A
C470        C471   1.412       .  A
C471        H478   1.084       .  S
C472        H479   1.083       .  S
C472        C473   1.403       .  A
C473        H480   1.083       .  S
C473        C474   1.404       .  A
C474        C475   1.403       .  A
C475        H481   1.085       .  S
C482        C483   1.404       .  A
C482        C487   1.404       .  A
C483        H492   1.083       .  S
C483        C484   1.393       .  A
C484        H493   1.084       .  S
C484        C485   1.400       .  A
C485        C491   1.399       .  A
C485        C486   1.415       .  A
C486        C488   1.402       .  A
C486        C487   1.403       .  A
C487        H494   1.084       .  S
C488        H495   1.083       .  S
C488        C489   1.398       .  A
C489        H496   1.083       .  S
C489        C490   1.404       .  A
C490        C491   1.404       .  A
C491        H497   1.085       .  S
C498        C499   1.405       .  A
C498        C503   1.404       .  A
C499        H508   1.083       .  S
C499        C500   1.397       .  A
C500        H509   1.084       .  S
C500        C501   1.402       .  A
C501        C507   1.404       .  A
C501        C502   1.415       .  A
C502        C504   1.403       .  A
C502        C503   1.404       .  A
C503        H510   1.084       .  S
C504        H511   1.084       .  S
C504        C505   1.398       .  A
C505        H512   1.083       .  S
C505        C506   1.402       .  A
C506        C507   1.402       .  A
C507        H513   1.085       .  S
C514        C515   1.402       .  A
C514        C519   1.403       .  A
C515        H524   1.084       .  S
C515        C516   1.392       .  A
C516        H525   1.084       .  S
C516        C517   1.400       .  A
C517        C523   1.397       .  A
C517        C518   1.415       .  A
C518        C520   1.404       .  A
C518        C519   1.404       .  A
C519        H526   1.084       .  S
C520        H527   1.083       .  S
C520        C521   1.399       .  A
C521        H528   1.083       .  S
C521        C522   1.404       .  A
C522        C523   1.402       .  A
C523        H529   1.085       .  S
C530        C531   1.407       .  A
C530        C535   1.403       .  A
C531        H540   1.083       .  S
C531        C532   1.400       .  A
C532        H541   1.084       .  S
C532        C533   1.403       .  A
C533        C539   1.410       .  A
C533        C534   1.415       .  A
C534        C536   1.400       .  A
C534        C535   1.408       .  A
C535        H542   1.084       .  S
C536        H543   1.084       .  S
C536        C537   1.398       .  A
C537        H544   1.081       .  S
C537        C538   1.407       .  A
C538        C539   1.409       .  A
C539        H545   1.084       .  S
C546        C547   1.401       .  A
C546        C551   1.402       .  A
C547        H556   1.083       .  S
C547        C548   1.397       .  A
C548        H557   1.083       .  S
C548        C549   1.403       .  A
C549        C555   1.402       .  A
C549        C550   1.416       .  A
C550        C552   1.402       .  A
C550        C551   1.400       .  A
C551        H558   1.085       .  S
C552        H559   1.084       .  S
C552        C553   1.395       .  A
C553        H560   1.083       .  S
C553        C554   1.402       .  A
C554        C555   1.401       .  A
C555        H561   1.084       .  S
C562        C563   1.405       .  A
C562        C567   1.407       .  A
C563        H572   1.083       .  S
C563        C564   1.409       .  A
C564        H573   1.083       .  S
C564        C565   1.409       .  A
C565        C571   1.418       .  A
C565        C566   1.413       .  A
C566        C568   1.399       .  A
C566        C567   1.405       .  A
C567        H574   1.085       .  S
C568        H575   1.084       .  S
C568        C569   1.395       .  A
C569        H576   1.081       .  S
C569        C570   1.407       .  A
C570        C571   1.414       .  A
C571        H577   1.084       .  S
C578        C579   1.404       .  A
C578        C583   1.405       .  A
C579        H588   1.083       .  S
C579        C580   1.393       .  A
C580        H589   1.084       .  S
C580        C581   1.400       .  A
C581        C587   1.399       .  A
C581        C582   1.415       .  A
C582        C584   1.402       .  A
C582        C583   1.404       .  A
C583        H590   1.084       .  S
C584        H591   1.084       .  S
C584        C585   1.398       .  A
C585        H592   1.083       .  S
C585        C586   1.406       .  A
C586        C587   1.404       .  A
C587        H593   1.084       .  S
C594        C595   1.404       .  A
C594        C599   1.405       .  A
C595        H604   1.083       .  S
C595        C596   1.399       .  A
C596        H605   1.084       .  S
C596        C597   1.403       .  A
C597        C603   1.409       .  A
C597        C598   1.415       .  A
C598        C600   1.402       .  A
C598        C599   1.408       .  A
C599        H606   1.084       .  S
C600        H607   1.084       .  S
C600        C601   1.400       .  A
C601        H608   1.083       .  S
C601        C602   1.406       .  A
C602        C603   1.408       .  A
C603        H609   1.084       .  S
C610        C611   1.402       .  A
C610        C615   1.405       .  A
C611        H620   1.084       .  S
C611        C612   1.391       .  A
C612        H621   1.084       .  S
C612        C613   1.399       .  A
C613        C619   1.395       .  A
C613        C614   1.415       .  A
C614        C616   1.405       .  A
C614        C615   1.405       .  A
C615        H622   1.084       .  S
C616        H623   1.083       .  S
C616        C617   1.401       .  A
C617        H624   1.083       .  S
C617        C618   1.403       .  A
C618        C619   1.401       .  A
C619        H625   1.085       .  S
C626        C627   1.406       .  A
C626        C631   1.409       .  A
C627        H636   1.083       .  S
C627        C628   1.395       .  A
C628        H637   1.084       .  S
C628        C629   1.400       .  A
C629        C635   1.404       .  A
C629        C630   1.414       .  A
C630        C632   1.406       .  A
C630        C631   1.413       .  A
C631        H638   1.084       .  S
C632        H639   1.083       .  S
C632        C633   1.404       .  A
C633        H640   1.083       .  S
C633        C634   1.404       .  A
C634        C635   1.405       .  A
C635        H641   1.085       .  S
C642        C643   1.406       .  A
C642        C647   1.404       .  A
C643        H652   1.083       .  S
C643        C644   1.394       .  A
C644        H653   1.084       .  S
C644        C645   1.399       .  A
C645        C651   1.402       .  A
C645        C646   1.416       .  A
C646        C648   1.402       .  A
C646        C647   1.405       .  A
C647        H654   1.084       .  S
C648        H655   1.084       .  S
C648        C649   1.398       .  A
C649        H656   1.083       .  S
C649        C650   1.403       .  A
C650        C651   1.401       .  A
C651        H657   1.085       .  S
C658        C659   1.406       .  A
C658        C663   1.402       .  A
C659        H668   1.083       .  S
C659        C660   1.398       .  A
C660        H669   1.084       .  S
C660        C661   1.401       .  A
C661        C667   1.407       .  A
C661        C662   1.416       .  A
C662        C664   1.399       .  A
C662        C663   1.405       .  A
C663        H670   1.085       .  S
C664        H671   1.084       .  S
C664        C665   1.395       .  A
C665        H672   1.081       .  S
C665        C666   1.407       .  A
C666        C667   1.405       .  A
C667        H673   1.084       .  S
C674        C675   1.405       .  A
C674        C679   1.405       .  A
C675        H684   1.083       .  S
C675        C676   1.396       .  A
C676        H685   1.084       .  S
C676        C677   1.401       .  A
C677        C683   1.406       .  A
C677        C678   1.416       .  A
C678        C680   1.402       .  A
C678        C679   1.408       .  A
C679        H686   1.084       .  S
C680        H687   1.083       .  S
C680        C681   1.398       .  A
C681        H688   1.083       .  S
C681        C682   1.404       .  A
C682        C683   1.403       .  A
C683        H689   1.085       .  S
C690        C691   1.408       .  A
C690        C695   1.410       .  A
C691        H700   1.081       .  S
C691        C692   1.401       .  A
C692        H701   1.084       .  S
C692        C693   1.402       .  A
C693        C699   1.412       .  A
C693        C694   1.415       .  A
C694        C696   1.403       .  A
C694        C695   1.412       .  A
C695        H702   1.084       .  S
C696        H703   1.083       .  S
C696        C697   1.400       .  A
C697        H704   1.083       .  S
C697        C698   1.405       .  A
C698        C699   1.406       .  A
C699        H705   1.084       .  S
C706        C707   1.404       .  A
C706        C711   1.406       .  A
C707        H716   1.083       .  S
C707        C708   1.394       .  A
C708        H717   1.084       .  S
C708        C709   1.400       .  A
C709        C715   1.400       .  A
C709        C710   1.415       .  A
C710        C712   1.403       .  A
C710        C711   1.404       .  A
C711        H718   1.084       .  S
C712        H719   1.084       .  S
C712        C713   1.398       .  A
C713        H720   1.083       .  S
C713        C714   1.404       .  A
C714        C715   1.402       .  A
C715        H721   1.085       .  S
C722        C723   1.405       .  A
C722        C727   1.408       .  A
C723        H732   1.083       .  S
C723        C724   1.408       .  A
C724        H733   1.083       .  S
C724        C725   1.408       .  A
C725        C731   1.419       .  A
C725        C726   1.414       .  A
C726        C728   1.399       .  A
C726        C727   1.407       .  A
C727        H734   1.085       .  S
C728        H735   1.084       .  S
C728        C729   1.395       .  A
C729        H736   1.083       .  S
C729        C730   1.409       .  A
C730        C731   1.413       .  A
C731        H737   1.083       .  S
C738        C739   1.405       .  A
C738        C743   1.408       .  A
C739        H748   1.083       .  S
C739        C740   1.394       .  A
C740        H749   1.084       .  S
C740        C741   1.400       .  A
C741        C747   1.400       .  A
C741        C742   1.414       .  A
C742        C744   1.405       .  A
C742        C743   1.408       .  A
C743        H750   1.084       .  S
C744        H751   1.083       .  S
C744        C745   1.401       .  A
C745        H752   1.083       .  S
C745        C746   1.406       .  A
C746        C747   1.404       .  A
C747        H753   1.085       .  S
C754        C755   1.403       .  A
C754        C759   1.402       .  A
C755        H764   1.083       .  S
C755        C756   1.401       .  A
C756        H765   1.083       .  S
C756        C757   1.404       .  A
C757        C763   1.407       .  A
C757        C758   1.415       .  A
C758        C760   1.400       .  A
C758        C759   1.401       .  A
C759        H766   1.085       .  S
C760        H767   1.084       .  S
C760        C761   1.394       .  A
C761        H768   1.083       .  S
C761        C762   1.404       .  A
C762        C763   1.404       .  A
C763        H769   1.084       .  S
C770        C771   1.407       .  A
C770        C775   1.404       .  A
C771        H780   1.083       .  S
C771        C772   1.400       .  A
C772        H781   1.083       .  S
C772        C773   1.404       .  A
C773        C779   1.405       .  A
C773        C774   1.414       .  A
C774        C776   1.398       .  A
C774        C775   1.396       .  A
C775        H782   1.084       .  S
C776        H783   1.084       .  S
C776        C777   1.390       .  A
C777        H784   1.083       .  S
C777        C778   1.405       .  A
C778        C779   1.407       .  A
C779        H785   1.084       .  S
C786        C787   1.403       .  A
C786        C791   1.405       .  A
C787        H796   1.083       .  S
C787        C788   1.399       .  A
C788        H797   1.084       .  S
C788        C789   1.403       .  A
C789        C795   1.407       .  A
C789        C790   1.415       .  A
C790        C792   1.404       .  A
C790        C791   1.408       .  A
C791        H798   1.084       .  S
C792        H799   1.084       .  S
C792        C793   1.401       .  A
C793        H800   1.083       .  S
C793        C794   1.404       .  A
C794        C795   1.406       .  A
C795        H801   1.084       .  S
C802        C803   1.406       .  A
C802        C807   1.407       .  A
C803        H812   1.084       .  S
C803        C804   1.391       .  A
C804        H813   1.084       .  S
C804        C805   1.399       .  A
C805        C811   1.398       .  A
C805        C806   1.414       .  A
C806        C808   1.404       .  A
C806        C807   1.406       .  A
C807        H814   1.084       .  S
C808        H815   1.083       .  S
C808        C809   1.401       .  A
C809        H816   1.083       .  S
C809        C810   1.406       .  A
C810        C811   1.404       .  A
C811        H817   1.084       .  S
C818        C819   1.405       .  A
C818        C823   1.405       .  A
C819        H828   1.083       .  S
C819        C820   1.408       .  A
C820        H829   1.083       .  S
C820        C821   1.408       .  A
C821        C827   1.418       .  A
C821        C822   1.414       .  A
C822        C824   1.400       .  A
C822        C823   1.406       .  A
C823        H830   1.085       .  S
C824        H831   1.084       .  S
C824        C825   1.396       .  A
C825        H832   1.083       .  S
C825        C826   1.406       .  A
C826        C827   1.413       .  A
C827        H833   1.084       .  S
C834        C835   1.407       .  A
C834        C839   1.411       .  A
C835        H844   1.083       .  S
C835        C836   1.391       .  A
C836        H845   1.084       .  S
C836        C837   1.397       .  A
C837        C843   1.401       .  A
C837        C838   1.414       .  A
C838        C840   1.407       .  A
C838        C839   1.415       .  A
C839        H846   1.083       .  S
C840        H847   1.083       .  S
C840        C841   1.407       .  A
C841        H848   1.083       .  S
C841        C842   1.406       .  A
C842        C843   1.404       .  A
C843        H849   1.085       .  S
C850        C851   1.406       .  A
C850        C855   1.407       .  A
C851        H860   1.083       .  S
C851        C852   1.395       .  A
C852        H861   1.084       .  S
C852        C853   1.399       .  A
C853        C859   1.404       .  A
C853        C854   1.416       .  A
C854        C856   1.405       .  A
C854        C855   1.411       .  A
C855        H862   1.083       .  S
C856        H863   1.083       .  S
C856        C857   1.401       .  A
C857        H864   1.083       .  S
C857        C858   1.403       .  A
C858        C859   1.401       .  A
C859        H865   1.085       .  S
C866        C867   1.403       .  A
C866        C871   1.408       .  A
C867        H876   1.083       .  S
C867        C868   1.399       .  A
C868        H877   1.084       .  S
C868        C869   1.404       .  A
C869        C875   1.407       .  A
C869        C870   1.413       .  A
C870        C872   1.405       .  A
C870        C871   1.411       .  A
C871        H878   1.084       .  S
C872        H879   1.083       .  S
C872        C873   1.403       .  A
C873        H880   1.083       .  S
C873        C874   1.404       .  A
C874        C875   1.410       .  A
C875        H881   1.083       .  S
C882        C883   1.406       .  A
C882        C887   1.403       .  A
C883        H892   1.083       .  S
C883        C884   1.402       .  A
C884        H893   1.083       .  S
C884        C885   1.404       .  A
C885        C891   1.414       .  A
C885        C886   1.417       .  A
C886        C888   1.399       .  A
C886        C887   1.408       .  A
C887        H894   1.084       .  S
C888        H895   1.084       .  S
C888        C889   1.395       .  A
C889        H896   1.083       .  S
C889        C890   1.406       .  A
C890        C891   1.407       .  A
C891        H897   1.084       .  S
C898        C899   1.407       .  A
C898        C903   1.415       .  A
C899        H908   1.083       .  S
C899        C900   1.395       .  A
C900        H909   1.084       .  S
C900        C901   1.399       .  A
C901        C907   1.406       .  A
C901        C902   1.413       .  A
C902        C904   1.409       .  A
C902        C903   1.420       .  A
C903        H910   1.083       .  S
C904        H911   1.083       .  S
C904        C905   1.410       .  A
C905        H912   1.083       .  S
C905        C906   1.407       .  A
C906        C907   1.408       .  A
C907        H913   1.085       .  S
C914        C915   1.404       .  A
C914        C919   1.404       .  A
C915        H924   1.083       .  S
C915        C916   1.404       .  A
C916        H925   1.083       .  S
C916        C917   1.406       .  A
C917        C923   1.413       .  A
C917        C918   1.415       .  A
C918        C920   1.399       .  A
C918        C919   1.404       .  A
C919        H926   1.085       .  S
C920        H927   1.084       .  S
C920        C921   1.394       .  A
C921        H928   1.083       .  S
C921        C922   1.407       .  A
C922        C923   1.409       .  A
C923        H929   1.083       .  S
C930        C931   1.403       .  A
C930        C935   1.401       .  A
C931        H940   1.083       .  S
C931        C932   1.403       .  A
C932        H941   1.083       .  S
C932        C933   1.406       .  A
C933        C939   1.411       .  A
C933        C934   1.416       .  A
C934        C936   1.399       .  A
C934        C935   1.401       .  A
C935        H942   1.085       .  S
C936        H943   1.084       .  S
C936        C937   1.393       .  A
C937        H944   1.083       .  S
C937        C938   1.403       .  A
C938        C939   1.408       .  A
C939        H945   1.084       .  S
