geometry optimzed in LAMMPS
_audit_creation_date              2020-11-30 
_audit_creation_method            'lammps2cif' 
_symmetry_space_group_name_H-M    'P1' 
_symmetry_Int_Tables_number       1 
_symmetry_cell_setting            triclinic 
loop_ 
_symmetry_equiv_pos_as_xyz 
  x,y,z 
_cell_length_a                    49.98084039 
_cell_length_b                    49.82159166757802 
_cell_length_c                    50.09821093793938 
_cell_angle_alpha                 89.85307132820054 
_cell_angle_beta                  89.55267831904756 
_cell_angle_gamma                 89.44068788514132 
loop_ 
_atom_site_label 
_atom_site_type_symbol 
_atom_site_fract_x 
_atom_site_fract_y 
_atom_site_fract_z 
_atom_site_charge 
N1          N  0.19082953  0.53156459  0.03435733    -0.02100
C2          C  0.19195597  0.52699054  0.06118952     0.00500
C3          C  0.16915645  0.53655300  0.07371851    -0.22400
C4          C  0.15335424  0.54753579  0.05414902    -0.22600
C5          C  0.16681344  0.54405189  0.03012710     0.00400
H6          H  0.16418908  0.53491190  0.09471981     0.14200
H7          H  0.13354044  0.55604478  0.05702690     0.14200
N8          N  0.36603830  0.53330592  0.93829168    -0.02100
C9          C  0.38941338  0.54574905  0.94422637     0.00500
C10         C  0.40562483  0.54727116  0.92180053    -0.22400
C11         C  0.39228524  0.53487693  0.90149128    -0.22600
C12         C  0.36817651  0.52643246  0.91200470     0.00400
H13         H  0.42557555  0.55546838  0.92063179     0.14200
H14         H  0.39947223  0.53211150  0.88124160     0.14200
N15         N  0.29153546  0.59363355  0.25827090    -0.02100
C16         C  0.30074769  0.61660793  0.24675228     0.00500
C17         C  0.29234453  0.63874641  0.26112503    -0.22400
C18         C  0.27773716  0.62931744  0.28237542    -0.22600
C19         C  0.27771014  0.60157372  0.28053882     0.00400
H20         H  0.29672640  0.65954832  0.25680377     0.14200
H21         H  0.26872808  0.64145307  0.29797802     0.14200
N22         N  0.31431483  0.40664802  0.20131859    -0.02100
C23         C  0.30452727  0.40516611  0.17617393     0.00500
C24         C  0.30965815  0.38002936  0.16564174    -0.22400
C25         C  0.32290674  0.36555164  0.18507235    -0.22600
C26         C  0.32541281  0.38233979  0.20684330     0.00400
H27         H  0.30417703  0.37293639  0.14605315     0.14200
H28         H  0.32929821  0.34477971  0.18373198     0.14200
N29         N  0.36973950  0.43516491  0.51490550    -0.02100
C30         C  0.39124356  0.41963369  0.50844941     0.00500
C31         C  0.40677725  0.41532050  0.53085917    -0.22400
C32         C  0.39451659  0.42886909  0.55162190    -0.22600
C33         C  0.37181001  0.44083078  0.54129054     0.00400
H34         H  0.42576869  0.40475599  0.53174383     0.14200
H35         H  0.40207307  0.43091144  0.57168825     0.14200
N36         N  0.18868199  0.48773572  0.45200882    -0.02100
C37         C  0.18262688  0.50576467  0.43240161     0.00500
C38         C  0.15552260  0.51202195  0.43360980    -0.22400
C39         C  0.14472134  0.49756500  0.45433448    -0.22600
C40         C  0.16545926  0.48295127  0.46527402     0.00400
H41         H  0.14464816  0.52559739  0.42063981     0.14200
H42         H  0.12402037  0.49780193  0.46083827     0.14200
N43         N  0.26413152  0.58531119  0.67240525    -0.02100
C44         C  0.27575438  0.58658334  0.64786556     0.00500
C45         C  0.27120164  0.61160644  0.63667933    -0.22400
C46         C  0.25608260  0.62602757  0.65490297    -0.22600
C47         C  0.25205676  0.60940898  0.67667335     0.00400
H48         H  0.27764876  0.61844250  0.61716848     0.14200
H49         H  0.24910110  0.64653343  0.65266195     0.14200
N50         N  0.24734842  0.41169396  0.77003969    -0.02100
C51         C  0.23940378  0.38631949  0.76440776     0.00500
C52         C  0.23935142  0.37106960  0.78752097    -0.22400
C53         C  0.24771964  0.38746649  0.80785543    -0.22600
C54         C  0.25227793  0.41244766  0.79671826     0.00400
H55         H  0.23436622  0.35005165  0.78932591     0.14200
H56         H  0.25114954  0.38138902  0.82828384     0.14200
N57         N  0.48444563  0.51656660  0.31248733    -0.02100
C58         C  0.47394062  0.50824003  0.33610431     0.00500
C59         C  0.47488002  0.52878901  0.35457682    -0.22400
C60         C  0.48675855  0.55025768  0.34203052    -0.22600
C61         C  0.49242780  0.54225615  0.31623358     0.00400
H62         H  0.46888682  0.52780979  0.37535957     0.14200
H63         H  0.49168970  0.56928395  0.35103181     0.14200
N64         N  0.51400190  0.45675545  0.12632121    -0.02100
C65         C  0.52937682  0.43512801  0.11919478     0.00500
C66         C  0.53080498  0.43352008  0.09159804    -0.22400
C67         C  0.51563315  0.45425166  0.08153294    -0.22600
C68         C  0.50542707  0.46819662  0.10313174     0.00400
H69         H  0.54116993  0.41834276  0.07993809     0.14200
H70         H  0.51213597  0.45851381  0.06064764     0.14200
N71         N  0.60908013  0.69781872  0.21009344    -0.02100
C72         C  0.61221403  0.67185497  0.21823224     0.00500
C73         C  0.63916545  0.66518048  0.21833043    -0.22400
C74         C  0.65286266  0.68745291  0.20967879    -0.22600
C75         C  0.63403055  0.70731203  0.20487771     0.00400
H76         H  0.64810680  0.64643984  0.22478494     0.14200
H77         H  0.67434113  0.68910930  0.20747053     0.14200
N78         N  0.42916889  0.78410022  0.18855123    -0.02100
C79         C  0.40851030  0.77732229  0.17260533     0.00500
C80         C  0.39257088  0.79957177  0.16740244    -0.22400
C81         C  0.40379932  0.82079091  0.18052723    -0.22600
C82         C  0.42628643  0.81076837  0.19303264     0.00400
H83         H  0.37448808  0.80024481  0.15566816     0.14200
H84         H  0.39651149  0.84131368  0.18078988     0.14200
N85         N  0.43893887  0.20272372  0.27502441    -0.02100
C86         C  0.43457682  0.17821508  0.26416673     0.00500
C87         C  0.40982539  0.16884870  0.27203371    -0.22400
C88         C  0.39850240  0.18840892  0.28803311    -0.22600
C89         C  0.41659002  0.20924088  0.28918910     0.00400
H90         H  0.40075377  0.15011217  0.26630607     0.14200
H91         H  0.37847101  0.18820059  0.29638443     0.14200
N92         N  0.62188018  0.26304771  0.23062507    -0.02100
C93         C  0.64551788  0.25085546  0.23668624     0.00500
C94         C  0.66612641  0.26208289  0.22220540    -0.22400
C95         C  0.65495700  0.28196682  0.20679747    -0.22600
C96         C  0.62772512  0.28257748  0.21238912     0.00400
H97         H  0.68719634  0.25708413  0.22355130     0.14200
H98         H  0.66581790  0.29529330  0.19360914     0.14200
N99         N  0.55822273  0.04756318  0.13538029    -0.02100
C100        C  0.55203290  0.07423433  0.13477613     0.00500
C101        C  0.55884611  0.08472185  0.11005189    -0.22400
C102        C  0.56961235  0.06389321  0.09523010    -0.22600
C103        C  0.56877510  0.04121708  0.11115129     0.00400
H104        H  0.55519485  0.10489904  0.10290875     0.14200
H105        H  0.57626120  0.06495023  0.07464762     0.14200
N106        N  0.53753216  0.95644419  0.31140893    -0.02100
C107        C  0.54886060  0.96306968  0.33500800     0.00500
C108        C  0.54735487  0.94183854  0.35275884    -0.22400
C109        C  0.53539843  0.92112021  0.33948506    -0.22600
C110        C  0.53025432  0.93030379  0.31397608     0.00400
H111        H  0.55483794  0.94124978  0.37296134     0.14200
H112        H  0.53130889  0.90137463  0.34752085     0.14200
N113        N  0.74225901  0.21475157  0.58227968    -0.02100
C114        C  0.71743933  0.22510144  0.58701607     0.00500
C115        C  0.70933929  0.21929043  0.61278054    -0.22400
C116        C  0.72999508  0.20505088  0.62434665    -0.22600
C117        C  0.75014959  0.20284568  0.60534411     0.00400
H118        H  0.69052700  0.22486453  0.62216558     0.14200
H119        H  0.73074647  0.19821935  0.64485343     0.14200
N120        N  0.80730051  0.25394984  0.39858717    -0.02100
C121        C  0.79560374  0.25100371  0.37444254     0.00500
C122        C  0.80925953  0.26549265  0.35520634    -0.22400
C123        C  0.83019813  0.27768362  0.36786128    -0.22600
C124        C  0.82861243  0.27012125  0.39432410     0.00400
H125        H  0.80518719  0.26606121  0.33402539     0.14200
H126        H  0.84546245  0.28994998  0.35863933     0.14200
N127        N  0.06318195  0.15368598  0.50967318    -0.02100
C128        C  0.08710592  0.14857214  0.49743824     0.00500
C129        C  0.09504983  0.12238665  0.50250835    -0.22400
C130        C  0.07528021  0.11096934  0.51789693    -0.22600
C131        C  0.05577753  0.13045840  0.52178607     0.00400
H132        H  0.11329646  0.11256887  0.49586085     0.14200
H133        H  0.07467462  0.09028587  0.52450508     0.14200
N134        N  0.99814368  0.34409468  0.51123448    -0.02100
C135        C  0.00795638  0.36674360  0.52253056     0.00500
C136        C  0.98884803  0.38702172  0.52208557    -0.22400
C137        C  0.96635039  0.37650453  0.51077857    -0.22600
C138        C  0.97241577  0.35011420  0.50479443     0.00400
H139        H  0.99090767  0.40719857  0.52970938     0.14200
H140        H  0.94757874  0.38692710  0.50743607     0.14200
N141        N  0.48126464  0.15160012  0.44654690    -0.02100
C142        C  0.45526548  0.15044375  0.45455960     0.00500
C143        C  0.44560660  0.12482889  0.45060403    -0.22400
C144        C  0.46635954  0.10990650  0.43975233    -0.22600
C145        C  0.48809096  0.12676236  0.43778435     0.00400
H146        H  0.42608712  0.11735863  0.45610617     0.14200
H147        H  0.46587857  0.08883684  0.43459737     0.14200
N148        N  0.57403825  0.32733165  0.45389301    -0.02100
C149        C  0.56743694  0.34939388  0.43925655     0.00500
C150        C  0.58830709  0.36741180  0.43932867    -0.22400
C151        C  0.60854273  0.35587162  0.45406453    -0.22600
C152        C  0.59950987  0.33103445  0.46233062     0.00400
H153        H  0.58876652  0.38691763  0.42979674     0.14200
H154        H  0.62772155  0.36472201  0.45826720     0.14200
N155        N  0.32358842  0.28779150  0.56561672    -0.02100
C156        C  0.31762586  0.30359341  0.58694169     0.00500
C157        C  0.33980509  0.30617799  0.60302523    -0.22400
C158        C  0.36001193  0.29132392  0.59140813    -0.22600
C159        C  0.34961163  0.28021844  0.56852527     0.00400
H160        H  0.34096337  0.31691196  0.62172565     0.14200
H161        H  0.38017944  0.28899344  0.59881383     0.14200
N162        N  0.22998474  0.27710001  0.38997872    -0.02100
C163        C  0.20551784  0.26700932  0.38475034     0.00500
C164        C  0.20017356  0.26918731  0.35777025    -0.22400
C165        C  0.22217265  0.28108154  0.34611764    -0.22600
C166        C  0.24029176  0.28549134  0.36631002     0.00400
H167        H  0.18274102  0.26190126  0.34749223     0.14200
H168        H  0.22505471  0.28514477  0.32506518     0.14200
N169        N  0.78894418  0.91431879  0.70883061    -0.02100
C170        C  0.79666355  0.89078556  0.72048055     0.00500
C171        C  0.78538965  0.86936821  0.70757568    -0.22400
C172        C  0.77039569  0.87986850  0.68724035    -0.22600
C173        C  0.77309186  0.90757339  0.68788448     0.00400
H174        H  0.78798174  0.84830412  0.71233692     0.14200
H175        H  0.75929425  0.86831855  0.67287487     0.14200
N176        N  0.82314231  0.09506367  0.78320262    -0.02100
C177        C  0.83581247  0.11765699  0.77518860     0.00500
C178        C  0.83776352  0.13517669  0.79644312    -0.22400
C179        C  0.82557757  0.12299537  0.81806349    -0.22600
C180        C  0.81684997  0.09825064  0.80942576     0.00400
H181        H  0.84619718  0.15509786  0.79604017     0.14200
H182        H  0.82249756  0.13179422  0.83756211     0.14200
N183        N  0.67661692  0.00101416  0.50956598    -0.02100
C184        C  0.67140222  0.98561049  0.53156425     0.00500
C185        C  0.64417523  0.98035296  0.53273780    -0.22400
C186        C  0.63238107  0.99342690  0.51168717    -0.22600
C187        C  0.65258211  0.00609730  0.49789042     0.00400
H188        H  0.63369066  0.96891213  0.54785882     0.14200
H189        H  0.61122268  0.99415077  0.50727333     0.14200
N190        N  0.85339920  0.05052716  0.43710910    -0.02100
C191        C  0.87585171  0.06444057  0.44256433     0.00500
C192        C  0.89153015  0.06630798  0.41973817    -0.22400
C193        C  0.87866184  0.05219799  0.40002713    -0.22600
C194        C  0.85537359  0.04249362  0.41133013     0.00400
H195        H  0.91124893  0.07497498  0.41814172     0.25400
H196        H  0.88607850  0.04840378  0.38002588     0.14200
N197        N  0.78087670  0.08525490  0.21032303    -0.02100
C198        C  0.78193696  0.10779305  0.22546267     0.00500
C199        C  0.79801674  0.12659750  0.21333576    -0.22400
C200        C  0.80710118  0.11534931  0.18990315    -0.22600
C201        C  0.79599769  0.09000467  0.18802702     0.00400
H202        H  0.80220424  0.14659962  0.22045697     0.14200
H203        H  0.82078529  0.12474842  0.17605375     0.14200
N204        N  0.73573151  0.90860768  0.28405978    -0.02100
C205        C  0.72476850  0.88417793  0.27976437     0.00500
C206        C  0.72440370  0.86961690  0.30329990    -0.22400
C207        C  0.73556197  0.88554716  0.32261049    -0.22600
C208        C  0.74215860  0.90954238  0.31041517     0.00400
H209        H  0.71751589  0.84925599  0.30598983     0.14200
H210        H  0.73923877  0.87981699  0.34309911     0.14200
N211        N  0.69192111  0.97119781  0.94031058    -0.02100
C212        C  0.66797746  0.95939299  0.94478147     0.00500
C213        C  0.65117409  0.96412195  0.92339602    -0.22400
C214        C  0.66507225  0.97985617  0.90550287    -0.22600
C215        C  0.68991806  0.98400824  0.91647859     0.00400
H216        H  0.63048874  0.95817601  0.92171606     0.14200
H217        H  0.65771694  0.98779433  0.88679088     0.14200
N218        N  0.87618446  0.98110223  0.01282837    -0.02100
C219        C  0.89951964  0.97538541  0.99976217     0.00500
C220        C  0.92101181  0.98251996  0.01515804    -0.22400
C221        C  0.91073960  0.99285895  0.03849512    -0.22600
C222        C  0.88308606  0.99127059  0.03711491     0.00400
H223        H  0.94198476  0.98032369  0.00999283     0.14200
H224        H  0.92252190  0.00114773  0.05437391     0.14200
N225        N  0.59489077  0.98455442  0.07341765    -0.25900
N226        N  0.57097404  0.97534910  0.08000664    -0.33700
C227        C  0.55919510  0.99280035  0.09715362     0.02500
C228        C  0.57640860  0.01405075  0.10150977     0.08500
C229        C  0.59867922  0.00811134  0.08588601    -0.04600
H230        H  0.53851821  0.99164960  0.10353950     0.09200
H231        H  0.61542257  0.02119554  0.08200586     0.10400
Cu232      Cu  0.55329857  0.94258371  0.06072612     0.44200
Cu233      Cu  0.61949775  0.96784350  0.04376951     0.42000
Cu234      Cu  0.59296575  0.91065685  0.00892394     0.43900
N235        N  0.53891470  0.91211892  0.03577058    -0.33300
N236        N  0.55383176  0.89967233  0.01763841    -0.27500
C237        C  0.53810118  0.88407758  0.00252284    -0.03600
C238        C  0.51187438  0.88688668  0.01127113     0.08600
C239        C  0.51324720  0.90497168  0.03228588     0.02400
H240        H  0.54472675  0.87436107  0.98435830     0.10000
H241        H  0.49643430  0.91433058  0.04246594     0.09100
N242        N  0.62744111  0.93056486  0.99699219    -0.34700
N243        N  0.63750488  0.95132672  0.00972348    -0.26900
C244        C  0.65654921  0.96254649  0.99419689    -0.02100
C245        C  0.65833300  0.94839303  0.97044384     0.06500
C246        C  0.63951303  0.92832799  0.97301717     0.04600
H247        H  0.66569508  0.98168553  0.99827335     0.09700
H248        H  0.63286266  0.91511158  0.95735610     0.08500
N249        N  0.58845410  0.01378253  0.36655939    -0.25900
N250        N  0.56748813  0.02826114  0.35931720    -0.33700
C251        C  0.55162021  0.01318848  0.34391984     0.02500
C252        C  0.56325290  0.98802733  0.34103504     0.08500
C253        C  0.58655008  0.98919861  0.35580843    -0.04600
H254        H  0.53139260  0.01857371  0.33929923     0.09200
H255        H  0.59916529  0.97233947  0.36131610     0.10400
Cu256      Cu  0.55685614  0.06374146  0.37817401     0.44200
Cu257      Cu  0.61276359  0.02446014  0.39804101     0.42000
Cu258      Cu  0.58930129  0.07812019  0.44159218     0.43900
N259        N  0.54305026  0.09226826  0.40502804    -0.33300
N260        N  0.55432036  0.09754573  0.42822072    -0.27500
C261        C  0.53741921  0.11327280  0.44252575    -0.03600
C262        C  0.51459610  0.11816898  0.42756632     0.08600
C263        C  0.51887826  0.10426210  0.40409828     0.02400
H264        H  0.54023269  0.11815446  0.46333012     0.10000
H265        H  0.50436613  0.10092765  0.38856757     0.09100
N266        N  0.62049040  0.05131363  0.45146651    -0.34700
N267        N  0.62871172  0.03191571  0.43533541    -0.26900
C268        C  0.64445205  0.01477112  0.44895446    -0.02100
C269        C  0.64722313  0.02387579  0.47482422     0.06500
C270        C  0.63128742  0.04694862  0.47572069     0.04600
H271        H  0.65004530  0.99509025  0.44168370     0.09700
H272        H  0.62531454  0.05772475  0.49355492     0.08500
N273        N  0.73231490  0.78429853  0.90574999    -0.02100
C274        C  0.74136238  0.79403797  0.88201905     0.00500
C275        C  0.72076159  0.79506698  0.86375214    -0.22400
C276        C  0.69819079  0.78604210  0.87667475    -0.22600
C277        C  0.70573179  0.77998682  0.90247721     0.00400
H278        H  0.72197755  0.80195102  0.84327544     0.14200
H279        H  0.67853041  0.78400764  0.86809477     0.14200
N280        N  0.81151046  0.77423743  0.08714514    -0.02100
C281        C  0.80498839  0.78460253  0.11136475     0.00500
C282        C  0.82552734  0.78004466  0.12910994    -0.22400
C283        C  0.84506676  0.76589733  0.11547754    -0.22600
C284        C  0.83591494  0.76211348  0.08972972     0.00400
H285        H  0.82585071  0.78548662  0.15000388     0.14200
H286        H  0.86395823  0.75919298  0.12361619     0.14200
N287        N  0.55472513  0.67538056  0.02301133    -0.02100
C288        C  0.58124668  0.67431719  0.01709203     0.00500
C289        C  0.59243893  0.65047703  0.02571978    -0.22400
C290        C  0.57207770  0.63621757  0.03741497    -0.22600
C291        C  0.54909689  0.65184473  0.03544177     0.00400
H292        H  0.61303977  0.64398864  0.02330473     0.14200
H293        H  0.57368940  0.61615166  0.04560866     0.14200
N294        N  0.47998219  0.85818562  0.98448539    -0.02100
C295        C  0.48781380  0.88198470  0.99496385     0.00500
C296        C  0.47069161  0.90233536  0.98702865    -0.22400
C297        C  0.45164467  0.89078372  0.97122619    -0.22600
C298        C  0.45761030  0.86361774  0.96989818     0.00400
H299        H  0.47190396  0.92336352  0.99219851     0.14200
H300        H  0.43460914  0.90105377  0.96261163     0.14200
N301        N  0.98042926  0.65968327  0.95566581    -0.02100
C302        C  0.98987452  0.63520905  0.94772330     0.00500
C303        C  0.96982818  0.61638786  0.94980259    -0.22400
C304        C  0.94752072  0.62945383  0.95967311    -0.22600
C305        C  0.95442029  0.65602095  0.96304734     0.00400
H306        H  0.97156964  0.59514381  0.94559202     0.14200
H307        H  0.92886444  0.62012703  0.96530995     0.14200
N308        N  0.06591940  0.84044833  0.94437506    -0.02100
C309        C  0.05857503  0.86326876  0.93132720     0.00500
C310        C  0.07968260  0.88100232  0.93066122    -0.22400
C311        C  0.10067984  0.86870585  0.94358126    -0.22600
C312        C  0.09194161  0.84364870  0.95141728     0.00400
H313        H  0.07970875  0.90091897  0.92198631     0.14200
H314        H  0.12027299  0.87709490  0.94683968     0.14200
N315        N  0.31326349  0.73163588  0.86756658    -0.02100
C316        C  0.30688256  0.72222865  0.84297250     0.00500
C317        C  0.32694423  0.72846156  0.82486241    -0.22400
C318        C  0.34640490  0.74178006  0.83876080    -0.22600
C319        C  0.33768113  0.74307072  0.86492111     0.00400
H320        H  0.32728870  0.72395932  0.80373946     0.14200
H321        H  0.36473651  0.74993373  0.83063117     0.14200
N322        N  0.24132590  0.71291310  0.05174647    -0.02100
C323        C  0.24860968  0.69979444  0.07439196     0.00500
C324        C  0.22868496  0.70219802  0.09354812    -0.22400
C325        C  0.20865919  0.71755080  0.08251566    -0.22600
C326        C  0.21695040  0.72410000  0.05696910     0.00400
H327        H  0.22904921  0.69437235  0.11371777     0.14200
H328        H  0.19013550  0.72360206  0.09219234     0.14200
N329        N  0.12329579  0.56715419  0.97665801    -0.25900
N330        N  0.13416105  0.54583445  0.96499183    -0.33700
C331        C  0.15317202  0.53538553  0.98119005     0.02500
C332        C  0.15419727  0.55081849  0.00418879     0.08500
C333        C  0.13490628  0.57064529  0.00049336    -0.04600
H334        H  0.16383357  0.51674314  0.97750891     0.09200
H335        H  0.12861220  0.58562426  0.01488850     0.10400
Cu336      Cu  0.11908573  0.53003961  0.92949513     0.44200
Cu337      Cu  0.09065715  0.58908150  0.96173771     0.42000
Cu338      Cu  0.06255046  0.56615631  0.89990169     0.43900
N339        N  0.09736728  0.51622204  0.89673505    -0.33300
N340        N  0.07711524  0.52928392  0.88561943    -0.27500
C341        C  0.06522953  0.51290435  0.86790143    -0.03600
C342        C  0.07847961  0.48829860  0.86794043     0.08600
C343        C  0.09865294  0.49129324  0.88652965     0.02400
H344        H  0.04644658  0.51742370  0.85821470     0.10000
H345        H  0.11160063  0.47553743  0.89408139     0.09100
N346        N  0.04692362  0.59873209  0.92153005    -0.34700
N347        N  0.05678150  0.60692339  0.94448319    -0.26900
C348        C  0.03932672  0.62449385  0.95574778    -0.02100
C349        C  0.01744700  0.62786819  0.93902944     0.06500
C350        C  0.02310797  0.61093201  0.91768871     0.04600
H351        H  0.04081221  0.63145864  0.97609174     0.09700
H352        H  0.00932100  0.60540198  0.90213534     0.08500
N353        N  0.42653542  0.57234078  0.99992466    -0.25900
N354        N  0.41905216  0.54901975  0.01015001    -0.33700
C355        C  0.40219200  0.53711488  0.99298393     0.02500
C356        C  0.39908306  0.55359175  0.97087994     0.08500
C357        C  0.41496159  0.57558600  0.97598657    -0.04600
H358        H  0.39492963  0.51682888  0.99516717     0.09200
H359        H  0.41933423  0.59187381  0.96235562     0.10400
Cu360      Cu  0.43634118  0.53190021  0.04422569     0.44200
Cu361      Cu  0.45510427  0.59768435  0.01631854     0.42000
Cu362      Cu  0.48519943  0.57334658  0.07617150     0.43900
N363        N  0.46098665  0.51817424  0.07514173    -0.33300
N364        N  0.47865079  0.53362804  0.08691649    -0.27500
C365        C  0.49497816  0.51824836  0.10190283    -0.03600
C366        C  0.48728050  0.49167455  0.09994075     0.08600
C367        C  0.46573204  0.49254497  0.08251485     0.02400
H368        H  0.51338050  0.52550123  0.11017274     0.10000
H369        H  0.45643390  0.47541566  0.07329366     0.09100
N370        N  0.49614150  0.60916812  0.05800530    -0.34700
N371        N  0.48570906  0.61812170  0.03549552    -0.26900
C372        C  0.50117376  0.63806021  0.02585916    -0.02100
C373        C  0.52245519  0.64170119  0.04308073     0.06500
C374        C  0.51836715  0.62305153  0.06323198     0.04600
H375        H  0.49922674  0.64653352  0.00605859     0.09700
H376        H  0.53252590  0.61748296  0.07856085     0.08500
N377        N  0.92734831  0.71335804  0.75988190    -0.02100
C378        C  0.90404123  0.71950936  0.77270889     0.00500
C379        C  0.88822784  0.69692310  0.77474779    -0.22400
C380        C  0.90239574  0.67607119  0.76329552    -0.22600
C381        C  0.92644764  0.68657685  0.75478571     0.00400
H382        H  0.86867836  0.69561850  0.78407398     0.14200
H383        H  0.89601532  0.65544763  0.76173108     0.14200
N384        N  0.11000816  0.78398807  0.74028654    -0.02100
C385        C  0.13481980  0.77265775  0.74109583     0.00500
C386        C  0.15303002  0.78848549  0.72762432    -0.22400
C387        C  0.13897374  0.81015512  0.71781449    -0.22600
C388        C  0.11263949  0.80686932  0.72572717     0.00400
H389        H  0.17412237  0.78428574  0.72461579     0.14200
H390        H  0.14685549  0.82582738  0.70509357     0.14200
N391        N  0.05545549  0.53718342  0.65306730    -0.02100
C392        C  0.04407099  0.56161707  0.64831411     0.00500
C393        C  0.04678422  0.56827038  0.62164609    -0.22400
C394        C  0.06002657  0.54720141  0.60955066    -0.22600
C395        C  0.06498812  0.52834006  0.62921598     0.00400
H396        H  0.03980579  0.58648394  0.61203246     0.14200
H397        H  0.06538179  0.54573645  0.58862760     0.14200
N398        N  0.05676971  0.45571745  0.83565549    -0.02100
C399        C  0.06735016  0.46213763  0.85972507     0.00500
C400        C  0.06493294  0.44074327  0.87720447    -0.22400
C401        C  0.05251622  0.42052271  0.86357240    -0.22600
C402        C  0.04806854  0.42999614  0.83805940     0.00400
H403        H  0.07109294  0.44008071  0.89786010     0.14200
H404        H  0.04741860  0.40093175  0.87135976     0.14200
N405        N  0.98307241  0.95153650  0.62426978    -0.02100
C406        C  0.96753523  0.95888813  0.60327652     0.00500
C407        C  0.96352930  0.93711147  0.58676430    -0.22400
C408        C  0.97716112  0.91574371  0.59781558    -0.22600
C409        C  0.98892776  0.92506358  0.62083394     0.00400
H410        H  0.95251551  0.93691197  0.56825635     0.14200
H411        H  0.97810332  0.89551173  0.59004954     0.14200
N412        N  0.00480418  0.03777773  0.80321792    -0.02100
C413        C  0.99681867  0.02936213  0.82778337     0.00500
C414        C  0.00336216  0.04827903  0.84671849    -0.22400
C415        C  0.01608898  0.06879274  0.83343943    -0.22600
C416        C  0.01662904  0.06195288  0.80670583     0.00400
H417        H  0.99987890  0.04695765  0.86802842     0.14200
H418        H  0.02502027  0.08615038  0.84256270     0.14200
N419        N  0.13349402  0.20380274  0.69130565    -0.02100
C420        C  0.15576665  0.21259822  0.67844468     0.00500
C421        C  0.17516002  0.19263152  0.67798582    -0.22400
C422        C  0.16451416  0.17080568  0.69098258    -0.22600
C423        C  0.13889189  0.17808799  0.69885774     0.00400
H424        H  0.19512710  0.19398192  0.66960585     0.14200
H425        H  0.17421115  0.15150616  0.69378883     0.14200
N426        N  0.94971702  0.28578793  0.70362546    -0.02100
C427        C  0.92608675  0.28003861  0.69170447     0.00500
C428        C  0.90792686  0.30079384  0.69569371    -0.22400
C429        C  0.92057290  0.31976284  0.71073837    -0.22600
C430        C  0.94604561  0.31001609  0.71551284     0.00400
H431        H  0.88734695  0.30165402  0.68915284     0.14200
H432        H  0.91204401  0.33854673  0.71771523     0.14200
N433        N  0.99848230  0.09724763  0.55075242    -0.25900
N434        N  0.98685577  0.11103833  0.53139078    -0.33700
C435        C  0.00487737  0.12787042  0.52042597     0.02500
C436        C  0.02914204  0.12432090  0.53323989     0.08500
C437        C  0.02420803  0.10472292  0.55232391    -0.04600
H438        H  0.00157955  0.13912890  0.50222727     0.09200
H439        H  0.03900584  0.09454443  0.56444628     0.10400
Cu440      Cu  0.94969754  0.10078408  0.51600565     0.44200
Cu441      Cu  0.98108434  0.06441955  0.56992291     0.42000
Cu442      Cu  0.91994841  0.03916651  0.54120067     0.43900
N443        N  0.91615177  0.08297871  0.49933769    -0.33300
N444        N  0.90496907  0.06082434  0.50859113    -0.27500
C445        C  0.88639590  0.05268743  0.49105031    -0.03600
C446        C  0.88605633  0.07033240  0.46957707     0.08600
C447        C  0.90524283  0.08921230  0.47561143     0.02400
H448        H  0.87626552  0.03362789  0.49228031     0.10000
H449        H  0.91256587  0.10483515  0.46249856     0.09100
N450        N  0.94155045  0.01900092  0.57094043    -0.34700
N451        N  0.96344781  0.02854419  0.58197349    -0.26900
C452        C  0.97439011  0.00943160  0.59771323    -0.02100
C453        C  0.95892067  0.98657093  0.59630072     0.06500
C454        C  0.93827316  0.99347081  0.57913342     0.04600
H455        H  0.99378913  0.01101733  0.60696460     0.09700
H456        H  0.92331081  0.98012596  0.57131586     0.08500
N457        N  0.06085077  0.39587086  0.56006681    -0.25900
N458        N  0.07353500  0.39072054  0.53736390    -0.33700
C459        C  0.05779696  0.37547254  0.52195140     0.02500
C460        C  0.03411940  0.37030633  0.53551717     0.08500
C461        C  0.03697144  0.38367370  0.55962678    -0.04600
H462        H  0.06142063  0.37236214  0.50090315     0.09200
H463        H  0.02112138  0.38768713  0.57394650     0.10400
Cu464      Cu  0.10773539  0.41078759  0.52467372     0.44200
Cu465      Cu  0.07158644  0.42628770  0.58661301     0.42000
Cu466      Cu  0.12856504  0.46499676  0.56630629     0.43900
N467        N  0.13734431  0.43777231  0.51342152    -0.33300
N468        N  0.14528992  0.45742945  0.52902996    -0.27500
C469        C  0.16021681  0.47455430  0.51458117    -0.03600
C470        C  0.16196734  0.46531331  0.48860547     0.08600
C471        C  0.14698962  0.44203252  0.48862147     0.02400
H472        H  0.16607711  0.49418376  0.52146517     0.10000
H473        H  0.14065754  0.43107573  0.47119963     0.09100
N474        N  0.10339579  0.47605290  0.59759353    -0.34700
N475        N  0.08215474  0.46227944  0.60511186    -0.26900
C476        C  0.06685897  0.47791395  0.62121328    -0.02100
C477        C  0.07904472  0.50268558  0.62391777     0.06500
C478        C  0.10209299  0.50061077  0.60855254     0.04600
H479        H  0.04667054  0.47304558  0.62733725     0.09700
H480        H  0.11501305  0.51698724  0.60282606     0.08500
N481        N  0.96061898  0.97835784  0.86329408    -0.25900
N482        N  0.98079456  0.96376860  0.85394478    -0.33700
C483        C  0.99493142  0.97882133  0.83646273     0.02500
C484        C  0.98300256  0.00408828  0.83461962     0.08500
C485        C  0.96138762  0.00285343  0.85204853    -0.04600
H486        H  0.01439588  0.97311610  0.82864614     0.09200
H487        H  0.94925841  0.01969597  0.85870995     0.10400
Cu488      Cu  0.99177021  0.92724625  0.87165457     0.44200
Cu489      Cu  0.93791587  0.96764994  0.89658895     0.42000
Cu490      Cu  0.95631631  0.90771821  0.93324976     0.43900
N491        N  0.00407715  0.89630665  0.89722659    -0.33300
N492        N  0.99163234  0.88909895  0.91950804    -0.27500
C493        C  0.00809004  0.87283751  0.93365778    -0.03600
C494        C  0.03207126  0.86977358  0.91975124     0.08600
C495        C  0.02856981  0.88493191  0.89680029     0.02400
H496        H  0.00427171  0.86674063  0.95404553     0.10000
H497        H  0.04399065  0.89000658  0.88241850     0.09100
N498        N  0.92709593  0.93520429  0.94648934    -0.34700
N499        N  0.92113430  0.95749428  0.93338681    -0.26900
C500        C  0.90697937  0.97391351  0.94962045    -0.02100
C501        C  0.90294245  0.96127253  0.97399316     0.06500
C502        C  0.91639496  0.93686622  0.97121221     0.04600
H503        H  0.90337777  0.99487524  0.94531482     0.09700
H504        H  0.92113143  0.92302993  0.98721225     0.08500
N505        N  0.84029525  0.85870288  0.76713681    -0.25900
N506        N  0.82149652  0.86822679  0.78332433    -0.33700
C507        C  0.80566773  0.88529555  0.76963696     0.02500
C508        C  0.81469910  0.88697455  0.74346706     0.08500
C509        C  0.83676492  0.86971657  0.74281332    -0.04600
H510        H  0.78643751  0.89215972  0.77698627     0.09200
H511        H  0.84677943  0.86249769  0.72496123     0.10400
Cu512      Cu  0.81160299  0.85115729  0.81998879     0.44200
Cu513      Cu  0.86405448  0.82490028  0.77602013     0.42000
Cu514      Cu  0.84104913  0.78743074  0.83410253     0.43900
N515        N  0.79730847  0.82597133  0.84994205    -0.33300
N516        N  0.80765831  0.80195005  0.85455336    -0.27500
C517        C  0.79047542  0.78788141  0.86983631    -0.03600
C518        C  0.76843948  0.80394422  0.87578261     0.08600
C519        C  0.77346751  0.82784708  0.86246222     0.02400
H520        H  0.79201040  0.76646057  0.87277879     0.10000
H521        H  0.75921154  0.84398831  0.85918956     0.09100
N522        N  0.87079237  0.77380486  0.80821110    -0.34700
N523        N  0.87939863  0.78711361  0.78700209    -0.26900
C524        C  0.89511930  0.77054187  0.77231895    -0.02100
C525        C  0.89641386  0.74565418  0.78479188     0.06500
C526        C  0.88068094  0.74864666  0.80745955     0.04600
H527        H  0.90219665  0.77534164  0.75256077     0.09700
H528        H  0.87474817  0.73287129  0.82110206     0.08500
N529        N  0.16638216  0.70908263  0.75350342    -0.25900
N530        N  0.17283403  0.72231756  0.77532692    -0.33700
C531        C  0.15877229  0.74547885  0.77609563     0.02500
C532        C  0.14250551  0.74708108  0.75386955     0.08500
C533        C  0.14813704  0.72364226  0.73992305    -0.04600
H534        H  0.16284916  0.76167894  0.78978323     0.09200
H535        H  0.14215875  0.71928458  0.71969056     0.10400
Cu536      Cu  0.20573368  0.71260933  0.79899164     0.44200
Cu537      Cu  0.18763712  0.67562265  0.73958622     0.42000
Cu538      Cu  0.24744202  0.65750750  0.77628788     0.43900
N539        N  0.24281575  0.70331380  0.81575661    -0.33300
N540        N  0.25806696  0.68316938  0.80738615    -0.27500
C541        C  0.28232777  0.68526529  0.81866329    -0.03600
C542        C  0.28248571  0.70754442  0.83527023     0.08600
C543        C  0.25708495  0.71863826  0.83250823     0.02400
H544        H  0.29953591  0.67316547  0.81299916     0.10000
H545        H  0.25066546  0.73826755  0.83906121     0.09100
N546        N  0.23597710  0.63855529  0.74101948    -0.34700
N547        N  0.21458896  0.64581430  0.72728326    -0.26900
C548        C  0.21572108  0.63402621  0.70314087    -0.02100
C549        C  0.23863956  0.61821540  0.70161006     0.06500
C550        C  0.25095262  0.62159906  0.72605089     0.04600
H551        H  0.20220616  0.63861650  0.68695646     0.09700
H552        H  0.27088518  0.61494976  0.73129696     0.08500
N553        N  0.84116690  0.13921995  0.70591672    -0.25900
N554        N  0.86374337  0.14855420  0.71562228    -0.33700
C555        C  0.86641836  0.13998511  0.74096132     0.02500
C556        C  0.84467279  0.12422052  0.74763922     0.08500
C557        C  0.82905311  0.12424774  0.72484090    -0.04600
H558        H  0.88171873  0.14687111  0.75440658     0.09200
H559        H  0.80888852  0.11691036  0.72315990     0.10400
Cu560      Cu  0.88623330  0.17801903  0.69678234     0.44200
Cu561      Cu  0.82464674  0.15331326  0.67029739     0.42000
Cu562      Cu  0.85435233  0.21324139  0.64167190     0.43900
N563        N  0.90049805  0.21366109  0.68075893    -0.33300
N564        N  0.88848536  0.22694851  0.66129003    -0.27500
C565        C  0.89880073  0.25177799  0.65995697    -0.03600
C566        C  0.91833273  0.25434456  0.67936887     0.08600
C567        C  0.91874760  0.22964390  0.69209514     0.02400
H568        H  0.89049214  0.26784108  0.64793319     0.10000
H569        H  0.92848879  0.22493834  0.71074018     0.09100
N570        N  0.81846561  0.19686381  0.62816488    -0.34700
N571        N  0.80787570  0.17500276  0.63873751    -0.26900
C572        C  0.78292323  0.17219197  0.62935212    -0.02100
C573        C  0.77736756  0.19305672  0.61185022     0.06500
C574        C  0.80045123  0.20830609  0.61158420     0.04600
H575        H  0.76877672  0.15769325  0.63693946     0.09700
H576        H  0.80270470  0.22795722  0.60264666     0.08500
N577        N  0.73765215  0.79343981  0.13747452    -0.25900
N578        N  0.74946225  0.81479450  0.14747175    -0.33700
C579        C  0.77436458  0.81643443  0.13722793     0.02500
C580        C  0.77851534  0.79545606  0.11955598     0.08500
C581        C  0.75475538  0.78126542  0.12025053    -0.04600
H582        H  0.78928646  0.83035049  0.14409114     0.09200
H583        H  0.75139727  0.76179794  0.11141931     0.10400
Cu584      Cu  0.73390372  0.83771487  0.17881367     0.44200
Cu585      Cu  0.70167833  0.77824913  0.15292685     0.42000
Cu586      Cu  0.67563078  0.81045942  0.21266265     0.43900
N587        N  0.71836569  0.85362568  0.21418831    -0.33300
N588        N  0.69748617  0.84323054  0.22673190    -0.27500
C589        C  0.69533084  0.85456781  0.25101710    -0.03600
C590        C  0.71555144  0.87318836  0.25396948     0.08600
C591        C  0.72977760  0.87202912  0.23012309     0.02400
H592        H  0.68137996  0.84814402  0.26631951     0.10000
H593        H  0.74866576  0.88158338  0.22581918     0.09100
N594        N  0.65995920  0.77476101  0.19734622    -0.34700
N595        N  0.66958452  0.76317388  0.17551930    -0.26900
C596        C  0.65883791  0.73859367  0.17337019    -0.02100
C597        C  0.64131688  0.73429147  0.19456733     0.06500
C598        C  0.64278144  0.75773485  0.20946370     0.04600
H599        H  0.66550108  0.72370229  0.15904313     0.09700
H600        H  0.63455540  0.76085109  0.22925742     0.08500
N601        N  0.67499366  0.19709151  0.27382856    -0.25900
N602        N  0.67694241  0.21696263  0.29107329    -0.33700
C603        C  0.66228493  0.23796319  0.28226089     0.02500
C604        C  0.65047482  0.23121417  0.25822220     0.08500
C605        C  0.65933789  0.20516905  0.25356123    -0.04600
H606        H  0.66361930  0.25799877  0.29039972     0.09200
H607        H  0.65797543  0.19450177  0.23484584     0.10400
Cu608      Cu  0.70634399  0.21791851  0.32020231     0.44200
Cu609      Cu  0.70037539  0.16363238  0.27361730     0.42000
Cu610      Cu  0.75800148  0.16591735  0.31645705     0.43900
N611        N  0.74070575  0.21760320  0.34333780    -0.33300
N612        N  0.75908977  0.19834058  0.34278529    -0.27500
C613        C  0.78014854  0.20616387  0.35736727    -0.03600
C614        C  0.77486237  0.23150344  0.36762045     0.08600
C615        C  0.74990248  0.23823730  0.35775122     0.02400
H616        H  0.79924825  0.19574926  0.35764550     0.10000
H617        H  0.74039750  0.25782935  0.35855794     0.09100
N618        N  0.75473611  0.13935023  0.28443207    -0.34700
N619        N  0.73314392  0.13772033  0.26947633    -0.26900
C620        C  0.73881722  0.12232845  0.24804758    -0.02100
C621        C  0.76531182  0.11396695  0.24924381     0.06500
C622        C  0.77473666  0.12540880  0.27255399     0.04600
H623        H  0.72592904  0.12074760  0.23087974     0.09700
H624        H  0.79543070  0.12624904  0.27865037     0.08500
N625        N  0.25009159  0.30888215  0.61279700    -0.25900
N626        N  0.26112081  0.33008104  0.62396324    -0.33700
C627        C  0.28570955  0.33337760  0.61349304     0.02500
C628        C  0.29067868  0.31328875  0.59497208     0.08500
C629        C  0.26745870  0.29831070  0.59484754    -0.04600
H630        H  0.30016839  0.34732288  0.62122334     0.09200
H631        H  0.26487485  0.27906100  0.58529724     0.10400
Cu632      Cu  0.24666172  0.34913803  0.65832294     0.44200
Cu633      Cu  0.21580382  0.29054804  0.62795130     0.42000
Cu634      Cu  0.19310559  0.31516187  0.69224578     0.43900
N635        N  0.23338839  0.35989119  0.69650455    -0.33300
N636        N  0.21409350  0.34684330  0.70901641    -0.27500
C637        C  0.21242577  0.35564530  0.73433520    -0.03600
C638        C  0.23125466  0.37551547  0.73808565     0.08600
C639        C  0.24432021  0.37753959  0.71357913     0.02400
H640        H  0.19939338  0.34715075  0.74942441     0.10000
H641        H  0.26193226  0.38906117  0.70902771     0.09100
N642        N  0.17747318  0.28119988  0.67407743    -0.34700
N643        N  0.18618294  0.27194875  0.65083460    -0.26900
C644        C  0.17665104  0.24703969  0.64737828    -0.02100
C645        C  0.16092084  0.24027890  0.66927485     0.06500
C646        C  0.16186897  0.26253702  0.68572454     0.04600
H647        H  0.18316687  0.23364707  0.63160064     0.09700
H648        H  0.15485318  0.26358612  0.70618405     0.08500
N649        N  0.32387363  0.63431021  0.18118711    -0.25900
N650        N  0.34399215  0.64316591  0.19555588    -0.33700
C651        C  0.34073741  0.63436765  0.22084245     0.02500
C652        C  0.31756074  0.61914882  0.22252951     0.08500
C653        C  0.30728276  0.62029240  0.19701456    -0.04600
H654        H  0.35222442  0.64156246  0.23754015     0.09200
H655        H  0.28712285  0.61535037  0.19136612     0.10400
Cu656      Cu  0.36954462  0.67354127  0.18219731     0.44200
Cu657      Cu  0.31471801  0.64715211  0.14291290     0.42000
Cu658      Cu  0.34818690  0.70373956  0.11860382     0.43900
N659        N  0.38529090  0.70896021  0.16619804    -0.33300
N660        N  0.37713388  0.71959884  0.14338933    -0.27500
C661        C  0.38686056  0.74451744  0.14110248    -0.03600
C662        C  0.40197204  0.75007636  0.16336417     0.08600
C663        C  0.40068722  0.72699236  0.17882370     0.02400
H664        H  0.38107815  0.75856973  0.12564082     0.10000
H665        H  0.40763263  0.72471046  0.19909407     0.09100
N666        N  0.31465208  0.68871078  0.09979249    -0.34700
N667        N  0.30237827  0.66715724  0.10877499    -0.26900
C668        C  0.27824904  0.66564232  0.09726760    -0.02100
C669        C  0.27489131  0.68739243  0.08020793     0.06500
C670        C  0.29856389  0.70152919  0.08238963     0.04600
H671        H  0.26268700  0.65218843  0.10394770     0.09700
H672        H  0.30198971  0.72181541  0.07559377     0.08500
N673        N  0.47357761  0.44069951  0.36221384    -0.25900
N674        N  0.45075153  0.45020553  0.37207069    -0.33700
C675        C  0.44577308  0.47439584  0.36113079     0.02500
C676        C  0.46618201  0.48059508  0.34335601     0.08500
C677        C  0.48345646  0.45865524  0.34458372    -0.04600
H678        H  0.43011390  0.48792301  0.36797536     0.09200
H679        H  0.50343038  0.45750895  0.33618156     0.10400
Cu680      Cu  0.43020023  0.43386502  0.40463306     0.44200
Cu681      Cu  0.49382823  0.40753847  0.37836683     0.42000
Cu682      Cu  0.46003053  0.37515004  0.43348797     0.43900
N683        N  0.41627090  0.41679700  0.44015931    -0.33300
N684        N  0.42736587  0.39494666  0.45040835    -0.27500
C685        C  0.41790392  0.39130030  0.47531152    -0.03600
C686        C  0.39982650  0.41170741  0.48121548     0.08600
C687        C  0.39919629  0.42749328  0.45834653     0.02400
H688        H  0.42565993  0.37643625  0.48908025     0.10000
H689        H  0.38951958  0.44688611  0.45624970     0.09100
N690        N  0.49869362  0.36520812  0.42153994    -0.34700
N691        N  0.51158700  0.37784992  0.40218818    -0.26900
C692        C  0.53784562  0.37186937  0.40404783    -0.02100
C693        C  0.54170723  0.35454614  0.42548270     0.06500
C694        C  0.51630407  0.35065734  0.43589084     0.04600
H695        H  0.55330971  0.38145607  0.39229483     0.09700
H696        H  0.51128529  0.34097993  0.45450235     0.08500
N697        N  0.30983410  0.29592250  0.34854051    -0.25900
N698        N  0.29867376  0.31777620  0.33836230    -0.33700
C699        C  0.27275799  0.31872167  0.34578945     0.02500
C700        C  0.26724258  0.29663745  0.36167269     0.08500
C701        C  0.29126805  0.28251942  0.36276129    -0.04600
H702        H  0.25827325  0.33285572  0.33786036     0.09200
H703        H  0.29424215  0.26233741  0.37019369     0.10400
Cu704      Cu  0.31672574  0.34120255  0.30901605     0.44200
Cu705      Cu  0.34727360  0.28150857  0.33654605     0.42000
Cu706      Cu  0.37609775  0.31233259  0.27763584     0.43900
N707        N  0.33332463  0.35585077  0.27371931    -0.33300
N708        N  0.35427206  0.34462466  0.26173102    -0.27500
C709        C  0.35623471  0.35463302  0.23680333    -0.03600
C710        C  0.33586041  0.37332539  0.23295802     0.08600
C711        C  0.32177307  0.37353825  0.25686431     0.02400
H712        H  0.36995508  0.34705926  0.22173198     0.10000
H713        H  0.30261282  0.38317765  0.26053288     0.09100
N714        N  0.39138147  0.27717901  0.29495794    -0.34700
N715        N  0.38063108  0.26607153  0.31646237    -0.26900
C716        C  0.39091080  0.24122455  0.31951287    -0.02100
C717        C  0.40911422  0.23624942  0.29908605     0.06500
C718        C  0.40900199  0.25963517  0.28398732     0.04600
H719        H  0.38330204  0.22665355  0.33363861     0.09700
H720        H  0.41819644  0.26225114  0.26453931     0.08500
C721        C  0.06932080  0.23346105  0.71808366    -0.13000
C722        C  0.05418260  0.23624802  0.69469321     0.17400
C723        C  0.06651785  0.22987522  0.66992291     0.03700
C724        C  0.09316547  0.22076862  0.66911638    -0.11500
C725        C  0.10777715  0.21710814  0.69261001    -0.02500
C726        C  0.09570741  0.22363107  0.71724788     0.03000
C727        C  0.02643725  0.24769440  0.69631040     0.09800
N728        N  0.05191281  0.23128462  0.64552883     0.66200
H729        H  0.10215161  0.21519351  0.65013771     0.19100
N730        N  0.11021388  0.22083755  0.74154135     0.76600
H731        H  0.06082971  0.23941544  0.73714109     0.10600
C732        C  0.00672076  0.23744128  0.71397295     0.04300
C733        C  0.98133559  0.24966581  0.71548903    -0.04400
C734        C  0.97503795  0.27215176  0.69994498    -0.22800
C735        C  0.99457030  0.28242929  0.68234389     0.13500
C736        C  0.01994963  0.27030915  0.68077219    -0.12000
N737        N  0.01196807  0.21464013  0.73052540     0.65200
H738        H  0.96672718  0.24210195  0.72963262     0.13100
N739        N  0.98897631  0.30531076  0.66601807     0.61800
H740        H  0.03488679  0.27905344  0.66768334     0.09200
O741        O  0.10405481  0.20242939  0.75773396    -0.39600
O742        O  0.12441997  0.24000946  0.74941460    -0.38800
O743        O  0.05743563  0.24928360  0.62864964    -0.38800
O744        O  0.03826962  0.21140253  0.63841305    -0.36500
O745        O  0.99893601  0.32763967  0.67205160    -0.37400
O746        O  0.98050373  0.30179567  0.64264174    -0.33600
O747        O  0.01737460  0.21827016  0.75480568    -0.35000
O748        O  0.00337944  0.19208422  0.72337710    -0.39300
C749        C  0.04430340  0.11920757  0.76451827    -0.13000
C750        C  0.06422068  0.10588593  0.74967035     0.17400
C751        C  0.06739924  0.07790134  0.75258576     0.03700
C752        C  0.05090601  0.06381266  0.77037565    -0.11500
C753        C  0.03147571  0.07720412  0.78588942    -0.02500
C754        C  0.02828409  0.10527627  0.78286119     0.03000
C755        C  0.08383394  0.12223134  0.73462112     0.09800
N756        N  0.08787898  0.06365599  0.73830917     0.66200
H757        H  0.05431779  0.04247681  0.77305191     0.19100
N758        N  0.00949885  0.12011762  0.79880158     0.76600
H759        H  0.04210999  0.14083101  0.76285987     0.10600
C760        C  0.07667785  0.13682484  0.71158624     0.04300
C761        C  0.09469928  0.15508220  0.70028176    -0.04400
C762        C  0.11984912  0.15927632  0.71171438    -0.22800
C763        C  0.12722137  0.14410051  0.73439812     0.13500
C764        C  0.10922979  0.12581753  0.74559612    -0.12000
N765        N  0.05139390  0.13296640  0.69918689     0.65200
H766        H  0.08912744  0.16564214  0.68220948     0.13100
N767        N  0.15232562  0.14806968  0.74719368     0.61800
H768        H  0.11473354  0.11509953  0.76363674     0.09200
O769        O  0.98709943  0.12645815  0.78908112    -0.39600
O770        O  0.01771182  0.13257104  0.81900413    -0.38800
O771        O  0.10969156  0.05828184  0.74975559    -0.38800
O772        O  0.08197275  0.05133675  0.71722110    -0.36500
O773        O  0.15421684  0.16601023  0.76478997    -0.37400
O774        O  0.17029097  0.13017863  0.74542313    -0.33600
O775        O  0.03360815  0.15097285  0.70119678    -0.35000
O776        O  0.04926286  0.11524910  0.68140450    -0.39300
C777        C  0.98187363  0.02428835  0.73347632    -0.13000
C778        C  0.99662746  0.00107035  0.72689861     0.17400
C779        C  0.01434606  0.99020231  0.74617152     0.03700
C780        C  0.01587259  0.00185386  0.77156346    -0.11500
C781        C  0.00068418  0.02463384  0.77807216    -0.02500
C782        C  0.98367817  0.03598217  0.75874950     0.03000
C783        C  0.99299368  0.98879470  0.70000402     0.09800
N784        N  0.03099848  0.96743424  0.74053709     0.66200
H785        H  0.02975774  0.99366801  0.78603383     0.19100
N786        N  0.96792919  0.05931151  0.76458965     0.76600
H787        H  0.96896213  0.03362478  0.71878955     0.10600
C788        C  0.96720362  0.98298647  0.69013137     0.04300
C789        C  0.96437100  0.97209081  0.66459646    -0.04400
C790        C  0.98672225  0.96644833  0.64852795    -0.22800
C791        C  0.01236306  0.97282886  0.65787565     0.13500
C792        C  0.01528268  0.98415698  0.68329520    -0.12000
N793        N  0.94368942  0.98712996  0.70607908     0.65200
H794        H  0.94460920  0.96688901  0.65761895     0.13100
N795        N  0.03549850  0.96861915  0.64146893     0.61800
H796        H  0.03505280  0.98987024  0.68970927     0.09200
O797        O  0.97470953  0.08157810  0.75474150    -0.39600
O798        O  0.94435020  0.05648568  0.77324031    -0.38800
O799        O  0.05458706  0.97128266  0.73231402    -0.38800
O800        O  0.02569700  0.94548836  0.75187946    -0.36500
O801        O  0.05200754  0.95030455  0.64747523    -0.37400
O802        O  0.04248557  0.98676939  0.62532529    -0.33600
O803        O  0.92808020  0.00639756  0.70059325    -0.35000
O804        O  0.93540927  0.96832828  0.72079635    -0.39300
C805        C  0.03530996  0.38715890  0.77651820    -0.13000
C806        C  0.00904904  0.37890616  0.78146418     0.17400
C807        C  0.99545635  0.38822538  0.80438303     0.03700
C808        C  0.00837144  0.40538351  0.82214000    -0.11500
C809        C  0.03474906  0.41373243  0.81731687    -0.02500
C810        C  0.04843690  0.40406669  0.79444514     0.03000
C811        C  0.99611874  0.35994600  0.76302406     0.09800
N812        N  0.96848802  0.38040142  0.80973180     0.66200
H813        H  0.99777417  0.41222206  0.83985598     0.19100
N814        N  0.07623092  0.40913319  0.79027588     0.76600
H815        H  0.04603769  0.37949206  0.75921659     0.10600
C816        C  0.98668318  0.36864648  0.73811438     0.04300
C817        C  0.97165181  0.35142465  0.72236610    -0.04400
C818        C  0.96599773  0.32525291  0.73083955    -0.22800
C819        C  0.97637852  0.31603881  0.75541125     0.13500
C820        C  0.99147944  0.33343690  0.77119546    -0.12000
N821        N  0.99141986  0.39528923  0.72894615     0.65200
H822        H  0.96356133  0.35885914  0.70370233     0.13100
N823        N  0.96967780  0.29024913  0.76591145     0.61800
H824        H  0.99853240  0.32665764  0.79050153     0.09200
O825        O  0.08375997  0.41945666  0.76849518    -0.39600
O826        O  0.09314191  0.39673386  0.80438549    -0.38800
O827        O  0.96386080  0.36178085  0.82619953    -0.38800
O828        O  0.94974662  0.38950023  0.79548851    -0.36500
O829        O  0.98819755  0.27364663  0.77096004    -0.37400
O830        O  0.94700865  0.28704210  0.77664944    -0.33600
O831        O  0.00934846  0.39908062  0.71154497    -0.35000
O832        O  0.97412147  0.41339231  0.73333047    -0.39300
C833        C  0.07986266  0.52243264  0.72235311    -0.13000
C834        C  0.06216451  0.50209691  0.73048875     0.17400
C835        C  0.04376606  0.49219374  0.71162453     0.03700
C836        C  0.04239343  0.50339866  0.68602723    -0.11500
C837        C  0.05903945  0.52444015  0.67858012    -0.02500
C838        C  0.07870111  0.53321210  0.69640746     0.03000
C839        C  0.06182967  0.49231555  0.75879874     0.09800
N840        N  0.02696020  0.47002212  0.71778621     0.66200
H841        H  0.02787888  0.49597758  0.67196062     0.19100
N842        N  0.09819313  0.55224441  0.68789759     0.76600
H843        H  0.09435238  0.53023741  0.73620527     0.10600
C844        C  0.08521567  0.48365847  0.77222670     0.04300
C845        C  0.08333712  0.47343466  0.79833911    -0.04400
C846        C  0.05850333  0.47093970  0.81122200    -0.22800
C847        C  0.03541967  0.48082865  0.79852154     0.13500
C848        C  0.03730639  0.49174036  0.77276956    -0.12000
N849        N  0.11071486  0.48327825  0.75912455     0.65200
H850        H  0.10115428  0.46570614  0.80800228     0.13100
N851        N  0.00997290  0.48025044  0.81165671     0.61800
H852        H  0.01935232  0.49964848  0.76353254     0.09200
O853        O  0.09491384  0.57683309  0.69301764    -0.39600
O854        O  0.11730565  0.54481890  0.67295477    -0.38800
O855        O  0.00219387  0.47393723  0.72126945    -0.38800
O856        O  0.03543498  0.44666218  0.71274176    -0.36500
O857        O  0.00258548  0.50021931  0.82539162    -0.37400
O858        O  0.99270806  0.46364270  0.80414139    -0.33600
O859        O  0.12856709  0.49925710  0.76663990    -0.35000
O860        O  0.11732519  0.46324834  0.74510349    -0.39300
C861        C  0.04147430  0.87587015  0.64606258    -0.13000
C862        C  0.03411357  0.87294003  0.67289567     0.17400
C863        C  0.01173133  0.88731370  0.68281527     0.03700
C864        C  0.99749341  0.90477197  0.66588232    -0.11500
C865        C  0.00504255  0.90782632  0.63898694    -0.02500
C866        C  0.02709602  0.89288880  0.62907973     0.03000
C867        C  0.05120297  0.85572503  0.69002687     0.09800
N868        N  0.00258379  0.88356170  0.70961696     0.66200
H869        H  0.98005063  0.91534626  0.67359125     0.19100
N870        N  0.03571987  0.89543190  0.60195153     0.76600
H871        H  0.05875652  0.86502612  0.63829310     0.10600
C872        C  0.05066155  0.82752480  0.68788749     0.04300
C873        C  0.07001031  0.81181874  0.70081712    -0.04400
C874        C  0.09040415  0.82378046  0.71553138    -0.22800
C875        C  0.09091780  0.85198444  0.71787075     0.13500
C876        C  0.07123064  0.86770955  0.70531296    -0.12000
N877        N  0.03152978  0.81462859  0.67136981     0.65200
H878        H  0.06990328  0.79024376  0.69814405     0.13100
N879        N  0.11160857  0.86483853  0.73256254     0.61800
H880        H  0.07216202  0.88939279  0.70662813     0.09200
O881        O  0.05336301  0.91242661  0.59603446    -0.39600
O882        O  0.03049887  0.87702605  0.58559734    -0.38800
O883        O  0.00664312  0.90161671  0.72663445    -0.38800
O884        O  0.98530245  0.86588721  0.71449660    -0.36500
O885        O  0.12959965  0.87763698  0.72031796    -0.37400
O886        O  0.11360920  0.86098249  0.75737607    -0.33600
O887        O  0.03783110  0.80877801  0.64763237    -0.35000
O888        O  0.01149341  0.80361991  0.68206016    -0.39300
C889        C  0.99331201  0.59233050  0.69662640    -0.13000
C890        C  0.00275808  0.61867603  0.69872154     0.17400
C891        C  0.02716822  0.62523252  0.68606216     0.03700
C892        C  0.04075919  0.60590228  0.67064177    -0.11500
C893        C  0.03092593  0.57975229  0.66800842    -0.02500
C894        C  0.00700830  0.57293764  0.68141801     0.03000
C895        C  0.98617687  0.63853911  0.71387123     0.09800
N896        N  0.03915894  0.65085057  0.68964835     0.66200
H897        H  0.05918369  0.61138218  0.66053648     0.19100
N898        N  0.99511238  0.54721200  0.67822985     0.76600
H899        H  0.97449089  0.58703142  0.70607425     0.10600
C900        C  0.97385447  0.66085388  0.70132894     0.04300
C901        C  0.95508741  0.67646180  0.71543579    -0.04400
C902        C  0.94812749  0.67056740  0.74184327    -0.22800
C903        C  0.96030541  0.64826997  0.75441932     0.13500
C904        C  0.97937099  0.63276379  0.74051756    -0.12000
N905        N  0.97807108  0.66650284  0.67365548     0.65200
H906        H  0.94428531  0.69217305  0.70498559     0.13100
N907        N  0.95272620  0.64035206  0.78081288     0.61800
H908        H  0.98815035  0.61534174  0.75026636     0.09200
O909        O  0.98240993  0.54237466  0.65714276    -0.39600
O910        O  0.99092566  0.53290863  0.69863639    -0.38800
O911        O  0.05339773  0.65446556  0.70997628    -0.38800
O912        O  0.04226606  0.66602945  0.66968400    -0.36500
O913        O  0.93546968  0.62224522  0.78382612    -0.37400
O914        O  0.96770715  0.64612267  0.80007513    -0.33600
O915        O  0.96367118  0.65491975  0.65670702    -0.35000
O916        O  0.98960997  0.68798196  0.66711286    -0.39300
C917        C  0.98858192  0.75181693  0.74051701    -0.13000
C918        C  0.00482596  0.74660169  0.76259977     0.17400
C919        C  0.99419980  0.73308729  0.78486902     0.03700
C920        C  0.96789948  0.72381467  0.78415876    -0.11500
C921        C  0.95189557  0.72798124  0.76160527    -0.02500
C922        C  0.96221143  0.74271918  0.73976389     0.03000
C923        C  0.03322817  0.75409846  0.76094298     0.09800
N924        N  0.01016870  0.72774730  0.80782559     0.66200
H925        H  0.96017817  0.71221089  0.80080689     0.19100
N926        N  0.94663694  0.74835390  0.71654359     0.76600
H927        H  0.99670178  0.76251335  0.72344228     0.10600
C928        C  0.05154104  0.73808321  0.74649933     0.04300
C929        C  0.07730760  0.74753687  0.74109249    -0.04400
C930        C  0.08521283  0.77289151  0.75006277    -0.22800
C931        C  0.06702788  0.78841668  0.76559886     0.13500
C932        C  0.04121499  0.77892956  0.77075260    -0.12000
N933        N  0.04359740  0.71275251  0.73610060     0.65200
H934        H  0.09071805  0.73567656  0.72869407     0.13100
N935        N  0.07421878  0.81400677  0.77598071     0.61800
H936        H  0.02708045  0.79133501  0.78181088     0.09200
O937        O  0.95399879  0.73835426  0.69454395    -0.39600
O938        O  0.93288983  0.76969022  0.71606167    -0.38800
O939        O  0.00867586  0.74340935  0.82753740    -0.38800
O940        O  0.02099002  0.70493978  0.81063821    -0.36500
O941        O  0.06090118  0.83450666  0.76909470    -0.37400
O942        O  0.08782973  0.81489821  0.79705218    -0.33600
O943        O  0.03395012  0.71156177  0.71294137    -0.35000
O944        O  0.04128548  0.69295537  0.75167597    -0.39300
C945        C  0.27501838  0.73908851  0.93175804    -0.13000
C946        C  0.28578095  0.71782846  0.94661064     0.17400
C947        C  0.30371295  0.69967941  0.93438158     0.03700
C948        C  0.31126110  0.70355539  0.90764451    -0.11500
C949        C  0.30101823  0.72530022  0.89284860    -0.02500
C950        C  0.28245989  0.74299586  0.90505412     0.03000
C951        C  0.27680617  0.71424077  0.97447445     0.09800
N952        N  0.31480155  0.67770867  0.94913841     0.66200
H953        H  0.32584247  0.69013538  0.89854610     0.19100
N954        N  0.27108980  0.76515986  0.89086004     0.76600
H955        H  0.26080026  0.75281745  0.94103294     0.10600
C956        C  0.28826378  0.72876297  0.99550458     0.04300
C957        C  0.27710468  0.72717524  0.02118354    -0.04400
C958        C  0.25446784  0.71154453  0.02614347    -0.22800
C959        C  0.24371766  0.69617666  0.00524399     0.13500
C960        C  0.25495502  0.69764911  0.97963517    -0.12000
N961        N  0.31034655  0.74618091  0.99078489     0.65200
H962        H  0.28508523  0.73953629  0.03691097     0.13100
N963        N  0.22118293  0.67927744  0.00961476     0.61800
H964        H  0.24613660  0.68634632  0.96351283     0.09200
O965        O  0.24795337  0.76265595  0.88138677    -0.39600
O966        O  0.27921397  0.78845860  0.89596024    -0.38800
O967        O  0.30234314  0.65583665  0.95048991    -0.38800
O968        O  0.33448051  0.68152998  0.96424191    -0.36500
O969        O  0.19880958  0.68616570  0.00017258    -0.37400
O970        O  0.22513532  0.65502866  0.01589090    -0.33600
O971        O  0.30598968  0.77047361  0.98494263    -0.35000
O972        O  0.33351848  0.73887045  0.99771284    -0.39300
C973        C  0.18968477  0.78190109  0.01480939    -0.13000
C974        C  0.16308394  0.77382060  0.01156517     0.17400
C975        C  0.15545149  0.74834124  0.02101092     0.03700
C976        C  0.17383292  0.73212388  0.03458437    -0.11500
C977        C  0.20019698  0.74041651  0.03862313    -0.02500
C978        C  0.20828759  0.76548966  0.02821348     0.03000
C979        C  0.14391687  0.79144316  0.99703474     0.09800
N980        N  0.12889997  0.73879326  0.01744423     0.66200
H981        H  0.16728420  0.71298264  0.04251157     0.19100
N982        N  0.23468972  0.77535388  0.03221433     0.76600
H983        H  0.19598623  0.80120088  0.00710911     0.10600
C984        C  0.13717078  0.81747261  0.00600608     0.04300
C985        C  0.11975015  0.83365177  0.99102498    -0.04400
C986        C  0.10885584  0.82455933  0.96696356    -0.22800
C987        C  0.11608212  0.79865481  0.95773814     0.13500
C988        C  0.13310564  0.78233191  0.97304489    -0.12000
N989        N  0.14755396  0.82768721  0.03041025     0.65200
H990        H  0.11472966  0.85359384  0.99822755     0.13100
N991        N  0.10849588  0.78933130  0.93197288     0.61800
H992        H  0.13901134  0.76277605  0.96545834     0.09200
O993        O  0.24035587  0.78594696  0.05428205    -0.39600
O994        O  0.24924437  0.78020282  0.01210921    -0.38800
O995        O  0.12472977  0.72127291  0.99987132    -0.38800
O996        O  0.11165501  0.74266227  0.03558624    -0.36500
O997        O  0.09861383  0.76622074  0.92990780    -0.37400
O998        O  0.11866188  0.80017234  0.91154039    -0.33600
O999        O  0.16635140  0.84440459  0.02960814    -0.35000
O1000       O  0.13401597  0.82520390  0.05161893    -0.39300
C1001       C  0.99531520  0.73119510  0.93723888    -0.13000
C1002       C  0.01795933  0.73648091  0.95257379     0.17400
C1003       C  0.02804664  0.71596159  0.96939122     0.03700
C1004       C  0.01590613  0.69059869  0.96983273    -0.11500
C1005       C  0.99374635  0.68522508  0.95378417    -0.02500
C1006       C  0.98338415  0.70594085  0.93750573     0.03000
C1007       C  0.03025975  0.76359083  0.95050980     0.09800
N1008       N  0.05089605  0.72028486  0.98567458     0.66200
H1009       H  0.02344330  0.67524546  0.98316456     0.19100
N1010       N  0.96073804  0.70169589  0.92092931     0.76600
H1011       H  0.98674995  0.74686659  0.92484096     0.10600
C1012       C  0.03743895  0.77449803  0.92535184     0.04300
C1013       C  0.04750603  0.80053832  0.92357601    -0.04400
C1014       C  0.05100661  0.81602445  0.94643555    -0.22800
C1015       C  0.04271046  0.80596969  0.97136970     0.13500
C1016       C  0.03262099  0.77978643  0.97335056    -0.12000
N1017       N  0.03595530  0.75892037  0.90150599     0.65200
H1018       H  0.05406465  0.80824214  0.90438375     0.13100
N1019       N  0.04308886  0.82280663  0.99440438     0.61800
H1020       H  0.02588656  0.77239620  0.99258911     0.09200
O1021       O  0.93947258  0.71474453  0.92564221    -0.39600
O1022       O  0.96428760  0.69156050  0.89810783    -0.38800
O1023       O  0.04768362  0.72432243  0.01035563    -0.38800
O1024       O  0.07367737  0.71339608  0.97696785    -0.36500
O1025       O  0.02639878  0.84185667  0.99662422    -0.37400
O1026       O  0.06093942  0.81966223  0.01181852    -0.33600
O1027       O  0.01804956  0.76436721  0.88467111    -0.35000
O1028       O  0.05592127  0.74491688  0.89438910    -0.39300
C1029       C  0.39046199  0.76398104  0.91483637    -0.13000
C1030       C  0.38252601  0.79057879  0.92020469     0.17400
C1031       C  0.35833049  0.80027258  0.90909544     0.03700
C1032       C  0.34367606  0.78404269  0.89186937    -0.11500
C1033       C  0.35194473  0.75781990  0.88605856    -0.02500
C1034       C  0.37535158  0.74757744  0.89802234     0.03000
C1035       C  0.40152338  0.80894024  0.93377197     0.09800
N1036       N  0.34853290  0.82672297  0.91470780     0.66200
H1037       H  0.32636409  0.79245297  0.88197479     0.19100
N1038       N  0.38471022  0.72101655  0.89234300     0.76600
H1039       H  0.40922297  0.75630343  0.92256982     0.10600
C1040       C  0.41282820  0.80311624  0.95891898     0.04300
C1041       C  0.43147147  0.82067284  0.97011722    -0.04400
C1042       C  0.43986772  0.84383371  0.95650157    -0.22800
C1043       C  0.42888996  0.84927182  0.93105820     0.13500
C1044       C  0.41006696  0.83192857  0.92008347    -0.12000
N1045       N  0.40516281  0.77983125  0.97368260     0.65200
H1046       H  0.43858697  0.81648796  0.99007186     0.13100
N1047       N  0.43721374  0.87188717  0.91557997     0.61800
H1048       H  0.40255253  0.83617199  0.90024391     0.09200
O1049       O  0.40323001  0.71764712  0.87538800    -0.39600
O1050       O  0.37920183  0.70226176  0.90837557    -0.38800
O1051       O  0.34963737  0.84445431  0.89670793    -0.38800
O1052       O  0.33272401  0.83011716  0.93419271    -0.36500
O1053       O  0.45635470  0.86905248  0.89923052    -0.37400
O1054       O  0.42142471  0.89162502  0.91293620    -0.33600
O1055       O  0.42107694  0.76005323  0.97482435    -0.35000
O1056       O  0.38633364  0.78163504  0.99051833    -0.39300
C1057       C  0.52757611  0.74455820  0.03484500    -0.13000
C1058       C  0.51461621  0.75015008  0.01050548     0.17400
C1059       C  0.51199410  0.72884636  0.99196860     0.03700
C1060       C  0.52409456  0.70378015  0.99694746    -0.11500
C1061       C  0.53795683  0.69892178  0.02057782    -0.02500
C1062       C  0.53840219  0.71899372  0.04022595     0.03000
C1063       C  0.50556615  0.77837216  0.00412829     0.09800
N1064       N  0.49653208  0.73199473  0.96829289     0.66200
H1065       H  0.52287691  0.68802099  0.98218244     0.19100
N1066       N  0.54954099  0.71339686  0.06585015     0.76600
H1067       H  0.53001488  0.76019955  0.04953052     0.10600
C1068       C  0.49159253  0.79463834  0.02291942     0.04300
C1069       C  0.48479890  0.82128597  0.01657126    -0.04400
C1070       C  0.49044869  0.83203145  0.99135642    -0.22800
C1071       C  0.50436143  0.81623063  0.97257698     0.13500
C1072       C  0.51225043  0.78987919  0.97918236    -0.12000
N1073       N  0.48246837  0.78404454  0.04786131     0.65200
H1074       H  0.47361100  0.83328933  0.03088436     0.13100
N1075       N  0.51081782  0.82690491  0.94685569     0.61800
H1076       H  0.52393824  0.77851213  0.96479998     0.09200
O1077       O  0.57399730  0.71746835  0.07009600    -0.39600
O1078       O  0.53560262  0.70155992  0.08329285    -0.38800
O1079       O  0.50831775  0.73267494  0.94593768    -0.38800
O1080       O  0.47195656  0.72649384  0.96917038    -0.36500
O1081       O  0.53005333  0.84292731  0.94421179    -0.37400
O1082       O  0.49556460  0.82269534  0.92739565    -0.33600
O1083       O  0.49317608  0.79193682  0.06914241    -0.35000
O1084       O  0.45967766  0.77341706  0.04904352    -0.39300
C1085       C  0.88241112  0.71082054  0.05632086    -0.13000
C1086       C  0.88565412  0.72160365  0.03067537     0.17400
C1087       C  0.87033635  0.74448061  0.02359591     0.03700
C1088       C  0.85378174  0.75713443  0.04270241    -0.11500
C1089       C  0.85124163  0.74687690  0.06875703    -0.02500
C1090       C  0.86534258  0.72291480  0.07515808     0.03000
C1091       C  0.90419542  0.70774598  0.01156354     0.09800
N1092       N  0.87168210  0.75542765  0.99725329     0.66200
H1093       H  0.84357872  0.77554282  0.03716544     0.19100
N1094       N  0.86174164  0.70980790  0.10032785     0.76600
H1095       H  0.89283668  0.69240756  0.06165180     0.10600
C1096       C  0.93150190  0.70344727  0.01763318     0.04300
C1097       C  0.94777798  0.68790785  0.00065264    -0.04400
C1098       C  0.93734195  0.67568488  0.97787923    -0.22800
C1099       C  0.91004631  0.67999168  0.97170636     0.13500
C1100       C  0.89393204  0.69622395  0.98829979    -0.12000
N1101       N  0.94287277  0.71397723  0.04145358     0.65200
H1102       H  0.96843164  0.68422042  0.00613624     0.13100
N1103       N  0.89815952  0.66758304  0.94904356     0.61800
H1104       H  0.87290873  0.69873899  0.98365360     0.09200
O1105       O  0.88063041  0.70970447  0.11690130    -0.39600
O1106       O  0.84339651  0.69273789  0.10279657    -0.38800
O1107       O  0.85298848  0.75079504  0.98116345    -0.38800
O1108       O  0.88758075  0.77436177  0.99238184    -0.36500
O1109       O  0.89424439  0.68132399  0.92822739    -0.37400
O1110       O  0.88537615  0.64608626  0.95224347    -0.33600
O1111       O  0.94619666  0.69863979  0.06126847    -0.35000
O1112       O  0.95549593  0.73575678  0.04032439    -0.39300
C1113       C  0.64477016  0.76725802  0.94675350    -0.13000
C1114       C  0.65273183  0.74366127  0.95983352     0.17400
C1115       C  0.67852968  0.73304233  0.95510228     0.03700
C1116       C  0.69562743  0.74574183  0.93699795    -0.11500
C1117       C  0.68756510  0.76891277  0.92324572    -0.02500
C1118       C  0.66194156  0.77998918  0.92856361     0.03000
C1119       C  0.63270014  0.72831711  0.97514604     0.09800
N1120       N  0.68698086  0.70833531  0.96702390     0.66200
H1121       H  0.71484291  0.73661845  0.93274771     0.19100
N1122       N  0.65307697  0.80416138  0.91588193     0.76600
H1123       H  0.62485067  0.77541289  0.95015876     0.10600
C1124       C  0.63189135  0.72828279  0.00323519     0.04300
C1125       C  0.61411198  0.71130730  0.01671046    -0.04400
C1126       C  0.59661114  0.69487496  0.00253330    -0.22800
C1127       C  0.59682285  0.69567340  0.97442686     0.13500
C1128       C  0.61476429  0.71241595  0.96099952    -0.12000
N1129       N  0.64891551  0.74532434  0.01827144     0.65200
H1130       H  0.61451490  0.71042223  0.03830224     0.13100
N1131       N  0.58037324  0.67821732  0.95921352     0.61800
H1132       H  0.61540719  0.71226944  0.93935539     0.09200
O1133       O  0.65589248  0.82620947  0.92782260    -0.39600
O1134       O  0.63670231  0.80279269  0.89689983    -0.38800
O1135       O  0.68486316  0.68684306  0.95398431    -0.38800
O1136       O  0.70251128  0.70889947  0.98671421    -0.36500
O1137       O  0.56112398  0.68803242  0.94616054    -0.37400
O1138       O  0.58905629  0.65508665  0.95336808    -0.33600
O1139       O  0.63994858  0.76762233  0.02643393    -0.35000
O1140       O  0.66989523  0.73568834  0.02850927    -0.39300
C1141       C  0.77126055  0.76525693  0.96695103    -0.13000
C1142       C  0.76044590  0.78333042  0.98567415     0.17400
C1143       C  0.74247133  0.80341945  0.97684057     0.03700
C1144       C  0.73507824  0.80445186  0.94996141    -0.11500
C1145       C  0.74498867  0.78566615  0.93145874    -0.02500
C1146       C  0.76358217  0.76603192  0.94009954     0.03000
C1147       C  0.76993385  0.78189241  0.01370998     0.09800
N1148       N  0.73035879  0.82195498  0.99509790     0.66200
H1149       H  0.72039727  0.81925852  0.94360928     0.19100
N1150       N  0.77428804  0.74617923  0.92235838     0.76600
H1151       H  0.78571785  0.75022199  0.97328544     0.10600
C1152       C  0.76882758  0.75779237  0.02863964     0.04300
C1153       C  0.78233449  0.75562494  0.05295061    -0.04400
C1154       C  0.79626564  0.77741344  0.06315125    -0.22800
C1155       C  0.79588350  0.80205924  0.04927661     0.13500
C1156       C  0.78310057  0.80401730  0.02456616    -0.12000
N1157       N  0.75309587  0.73577088  0.01998794     0.65200
H1158       H  0.78196751  0.73689655  0.06399420     0.13100
N1159       N  0.80985117  0.82474413  0.05925974     0.61800
H1160       H  0.78445085  0.82257284  0.01332169     0.09200
O1161       O  0.79914361  0.74599446  0.91774417    -0.39600
O1162       O  0.76144461  0.72481827  0.91886609    -0.38800
O1163       O  0.73758710  0.84615264  0.99477366    -0.38800
O1164       O  0.70847436  0.81592790  0.00620392    -0.36500
O1165       O  0.83341323  0.82910419  0.05125596    -0.37400
O1166       O  0.79685312  0.84329092  0.07074095    -0.33600
O1167       O  0.76460715  0.71522721  0.01048886    -0.35000
O1168       O  0.72943220  0.73389382  0.02866832    -0.39300
C1169       C  0.75476357  0.94743779  0.97381008    -0.13000
C1170       C  0.76612951  0.97197099  0.98126335     0.17400
C1171       C  0.75090549  0.99585846  0.97776393     0.03700
C1172       C  0.72576894  0.99486903  0.96581407    -0.11500
C1173       C  0.71521603  0.97063667  0.95701666    -0.02500
C1174       C  0.72949254  0.94659697  0.96182416     0.03000
C1175       C  0.79484654  0.97273700  0.98917002     0.09800
N1176       N  0.76090703  0.02146007  0.98545772     0.66200
H1177       H  0.71470404  0.01335452  0.96247807     0.19100
N1178       N  0.71965321  0.92148087  0.95262490     0.76600
H1179       H  0.76623883  0.92896983  0.97566776     0.10600
C1180       C  0.80558878  0.95651078  0.00976537     0.04300
C1181       C  0.83276345  0.95851899  0.01638564    -0.04400
C1182       C  0.84949246  0.97674074  0.00313608    -0.22800
C1183       C  0.83889214  0.99252635  0.98225176     0.13500
C1184       C  0.81210911  0.98972147  0.97498511    -0.12000
N1185       N  0.78904568  0.93880575  0.02493409     0.65200
H1186       H  0.84067837  0.94659764  0.03269347     0.13100
N1187       N  0.85406580  0.01350189  0.97012244     0.61800
H1188       H  0.80452420  0.00166441  0.95855550     0.09200
O1189       O  0.70948081  0.90532421  0.96917839    -0.39600
O1190       O  0.72665829  0.91307944  0.92985838    -0.38800
O1191       O  0.75517539  0.03033194  0.00837723    -0.38800
O1192       O  0.76815680  0.03776060  0.96753868    -0.36500
O1193       O  0.85642445  0.01410399  0.94502976    -0.37400
O1194       O  0.85769019  0.03482084  0.98309817    -0.33600
O1195       O  0.79071570  0.91385750  0.02085374    -0.35000
O1196       O  0.77822086  0.94718830  0.04620697    -0.39300
C1197       C  0.81139742  0.06514425  0.11737221    -0.13000
C1198       C  0.81641192  0.03775938  0.12132330     0.17400
C1199       C  0.81210792  0.02682378  0.14704776     0.03700
C1200       C  0.80521684  0.04378965  0.16852589    -0.11500
C1201       C  0.80073960  0.07150727  0.16471386    -0.02500
C1202       C  0.80306419  0.08180639  0.13834212     0.03000
C1203       C  0.83080922  0.02244276  0.09988498     0.09800
N1204       N  0.81523926  0.99858121  0.15166820     0.66200
H1205       H  0.80419977  0.03509369  0.18826853     0.19100
N1206       N  0.79726392  0.10928607  0.13223684     0.76600
H1207       H  0.81508854  0.07412880  0.09799747     0.10600
C1208       C  0.82287470  0.02323447  0.07290803     0.04300
C1209       C  0.83994231  0.01308873  0.05289098    -0.04400
C1210       C  0.86442841  0.00041535  0.05905799    -0.22800
C1211       C  0.87152168  0.99831873  0.08641211     0.13500
C1212       C  0.85510165  0.00976186  0.10616245    -0.12000
N1213       N  0.79734903  0.03387768  0.06546259     0.65200
H1214       H  0.83400009  0.01597058  0.03242009     0.13100
N1215       N  0.89531216  0.98469562  0.09485550     0.61800
H1216       H  0.86188524  0.00927640  0.12665125     0.09200
O1217       O  0.81622964  0.12459032  0.12574375    -0.39600
O1218       O  0.77372180  0.11576843  0.12577575    -0.38800
O1219       O  0.83039173  0.99013941  0.16995726    -0.38800
O1220       O  0.80325457  0.98198254  0.13711256    -0.36500
O1221       O  0.89407171  0.96007103  0.10062078    -0.37400
O1222       O  0.91431131  0.99830068  0.10404483    -0.33600
O1223       O  0.79606523  0.05604613  0.05328169    -0.35000
O1224       O  0.77758250  0.01833758  0.06479427    -0.39300
C1225       C  0.77495902  0.01886626  0.24468518    -0.13000
C1226       C  0.75355934  0.00730663  0.23109255     0.17400
C1227       C  0.73946860  0.02289482  0.21213936     0.03700
C1228       C  0.74815725  0.04893635  0.20590035    -0.11500
C1229       C  0.77022199  0.05992657  0.21887066    -0.02500
C1230       C  0.78327553  0.04490798  0.23884624     0.03000
C1231       C  0.74607921  0.97944764  0.23839967     0.09800
N1232       N  0.71680037  0.01242355  0.19865209     0.66200
H1233       H  0.73800012  0.06049095  0.19060778     0.19100
N1234       N  0.80607585  0.05526590  0.25222306     0.76600
H1235       H  0.78544644  0.00746502  0.25988687     0.10600
C1236       C  0.76501804  0.95825221  0.23659187     0.04300
C1237       C  0.76053203  0.93411374  0.25022565    -0.04400
C1238       C  0.73732238  0.93064857  0.26555006    -0.22800
C1239       C  0.71722041  0.95061637  0.26508955     0.13500
C1240       C  0.72176968  0.97495251  0.25176196    -0.12000
N1241       N  0.78925095  0.96130682  0.22162724     0.65200
H1242       H  0.77580602  0.91852909  0.25001608     0.13100
N1243       N  0.69250998  0.94673897  0.27895132     0.61800
H1244       H  0.70696833  0.99093111  0.25326534     0.09200
O1245       O  0.82916874  0.04984076  0.24328984    -0.39600
O1246       O  0.80349129  0.06388819  0.27577082    -0.38800
O1247       O  0.69362167  0.01940872  0.20621156    -0.38800
O1248       O  0.71993921  0.00199907  0.17590757    -0.36500
O1249       O  0.67258676  0.93814549  0.26636319    -0.37400
O1250       O  0.68912528  0.95681309  0.30181016    -0.33600
O1251       O  0.81099370  0.96476219  0.23372433    -0.35000
O1252       O  0.78977869  0.95459232  0.19736440    -0.39300
C1253       C  0.82970639  0.98123914  0.37487316    -0.13000
C1254       C  0.80368240  0.98928735  0.36791204     0.17400
C1255       C  0.79400538  0.01440722  0.37724240     0.03700
C1256       C  0.81072044  0.03119884  0.39215156    -0.11500
C1257       C  0.83713161  0.02351691  0.39784210    -0.02500
C1258       C  0.84643046  0.99809069  0.38942559     0.03000
C1259       C  0.78690535  0.97062916  0.35187486     0.09800
N1260       N  0.76765607  0.02362953  0.37091807     0.66200
H1261       H  0.80330816  0.05067006  0.39859241     0.19100
N1262       N  0.87264810  0.98876005  0.39615733     0.76600
H1263       H  0.83706978  0.96151610  0.36924547     0.10600
C1264       C  0.79619809  0.95971034  0.32741067     0.04300
C1265       C  0.78094957  0.94062200  0.31389202    -0.04400
C1266       C  0.75639218  0.93176059  0.32416227    -0.22800
C1267       C  0.74726094  0.94232752  0.34882961     0.13500
C1268       C  0.76232940  0.96174008  0.36221132    -0.12000
N1269       N  0.82134511  0.96744309  0.31616530     0.65200
H1270       H  0.78905296  0.93183040  0.29578995     0.13100
N1271       N  0.72302810  0.93313316  0.36093589     0.61800
H1272       H  0.75522661  0.96915073  0.38134646     0.09200
O1273       O  0.89036629  0.98691251  0.37816086    -0.39600
O1274       O  0.87631794  0.97719484  0.41828255    -0.38800
O1275       O  0.74999302  0.02451692  0.38904146    -0.38800
O1276       O  0.76385322  0.03629288  0.34941582    -0.36500
O1277       O  0.72420452  0.91565226  0.37917423    -0.37400
O1278       O  0.70185016  0.94681468  0.35824615    -0.33600
O1279       O  0.84121659  0.95175048  0.31811029    -0.35000
O1280       O  0.82203542  0.98628237  0.29931284    -0.39300
C1281       C  0.74011394  0.01107337  0.47061354    -0.13000
C1282       C  0.75464755  0.02717684  0.48807231     0.17400
C1283       C  0.74193510  0.03716532  0.51132282     0.03700
C1284       C  0.71578943  0.02915206  0.51762668    -0.11500
C1285       C  0.70208820  0.01132701  0.50109210    -0.02500
C1286       C  0.71426983  0.00266341  0.47702300     0.03000
C1287       C  0.78268002  0.03352539  0.48073864     0.09800
N1288       N  0.75563986  0.05438052  0.52928445     0.66200
H1289       H  0.70640067  0.03610683  0.53595029     0.19100
N1290       N  0.70175191  0.98371048  0.45985123     0.76600
H1291       H  0.74935246  0.00409084  0.45221094     0.10600
C1292       C  0.80142772  0.01287605  0.47475743     0.04300
C1293       C  0.82540005  0.01903715  0.46174989    -0.04400
C1294       C  0.83127311  0.04546059  0.45474668    -0.22800
C1295       C  0.81361991  0.06632750  0.46240675     0.13500
C1296       C  0.78947308  0.06023044  0.47532342    -0.12000
N1297       N  0.79614609  0.98544325  0.48104888     0.65200
H1298       H  0.83911595  0.00301020  0.45609539     0.13100
N1299       N  0.81872489  0.09346392  0.45487533     0.61800
H1300       H  0.77516999  0.07624021  0.47934333     0.09200
O1301       O  0.69936866  0.95972010  0.46751841    -0.39600
O1302       O  0.70026120  0.98880773  0.43521552    -0.38800
O1303       O  0.74995688  0.07911493  0.52960028    -0.38800
O1304       O  0.76835207  0.04421243  0.54853886    -0.36500
O1305       O  0.80954354  0.10233434  0.43314731    -0.37400
O1306       O  0.82665492  0.10979020  0.47225267    -0.33600
O1307       O  0.78948742  0.96970536  0.46260635    -0.35000
O1308       O  0.80531665  0.97573917  0.50243103    -0.39300
C1309       C  0.72768237  0.04267123  0.88664230    -0.13000
C1310       C  0.74871021  0.02943180  0.87332229     0.17400
C1311       C  0.75137084  0.00135761  0.87577284     0.03700
C1312       C  0.73262346  0.98688669  0.89087636    -0.11500
C1313       C  0.71109656  0.00006616  0.90347152    -0.02500
C1314       C  0.70888401  0.02825015  0.90161074     0.03000
C1315       C  0.76699637  0.04531537  0.85622948     0.09800
N1316       N  0.77242922  0.98723829  0.86225363     0.66200
H1317       H  0.73439180  0.96521695  0.89209730     0.19100
N1318       N  0.68768584  0.04251378  0.91481828     0.76600
H1319       H  0.72562860  0.06429388  0.88503512     0.10600
C1320       C  0.75903405  0.05399773  0.83072075     0.04300
C1321       C  0.77574498  0.07073184  0.81561293    -0.04400
C1322       C  0.80035456  0.07943459  0.82569052    -0.22800
C1323       C  0.80795906  0.07116875  0.85161669     0.13500
C1324       C  0.79146158  0.05389717  0.86642184    -0.12000
N1325       N  0.73355841  0.04666458  0.82038403     0.65200
H1326       H  0.76899762  0.07769008  0.79630236     0.13100
N1327       N  0.83205129  0.08048453  0.86348631     0.61800
H1328       H  0.79738459  0.04781697  0.88632349     0.09200
O1329       O  0.66738997  0.04968304  0.90168743    -0.39600
O1330       O  0.69208910  0.05341444  0.93704131    -0.38800
O1331       O  0.79364491  0.98149600  0.87458705    -0.38800
O1332       O  0.76791180  0.97628166  0.84008171    -0.36500
O1333       O  0.85213645  0.06500128  0.86447526    -0.37400
O1334       O  0.83089084  0.10039081  0.87898572    -0.33600
O1335       O  0.71359965  0.06197254  0.82399160    -0.35000
O1336       O  0.73015495  0.02333222  0.81137204    -0.39300
C1337       C  0.73203274  0.96226869  0.57319643    -0.13000
C1338       C  0.72039631  0.96022498  0.59864850     0.17400
C1339       C  0.69345182  0.96831152  0.60191570     0.03700
C1340       C  0.67914792  0.97841326  0.58012094    -0.11500
C1341       C  0.68996672  0.97833775  0.55404533    -0.02500
C1342       C  0.71684739  0.96948783  0.55079936     0.03000
C1343       C  0.73623302  0.94852565  0.62112642     0.09800
N1344       N  0.67938966  0.96381115  0.62644886     0.66200
H1345       H  0.65867641  0.98494311  0.58358168     0.19100
N1346       N  0.72816712  0.96380110  0.52522983     0.76600
H1347       H  0.75274778  0.95631022  0.57026959     0.10600
C1348       C  0.75117570  0.92453947  0.61808382     0.04300
C1349       C  0.76511757  0.91379375  0.63971403    -0.04400
C1350       C  0.76312930  0.92493834  0.66544923    -0.22800
C1351       C  0.74877576  0.94948451  0.66833991     0.13500
C1352       C  0.73629733  0.96127800  0.64607588    -0.12000
N1353       N  0.75037610  0.90928471  0.59397664     0.65200
H1354       H  0.77621695  0.89524052  0.63659282     0.13100
N1355       N  0.74481539  0.96211380  0.69356159     0.61800
H1356       H  0.72559109  0.98012348  0.64865242     0.09200
O1357       O  0.75066577  0.97356627  0.51944893    -0.39600
O1358       O  0.72116535  0.94256395  0.51368679    -0.38800
O1359       O  0.67205937  0.98359698  0.64047087    -0.38800
O1360       O  0.66889306  0.94122576  0.63057838    -0.36500
O1361       O  0.72486492  0.95540161  0.70754314    -0.37400
O1362       O  0.75459931  0.98509246  0.69695071    -0.33600
O1363       O  0.77132775  0.90679057  0.57994495    -0.35000
O1364       O  0.73129727  0.89330818  0.59044372    -0.39300
C1365       C  0.78800855  0.97781987  0.74895312    -0.13000
C1366       C  0.80602198  0.99354491  0.73440642     0.17400
C1367       C  0.81956132  0.98253323  0.71224792     0.03700
C1368       C  0.81378756  0.95635192  0.70399374    -0.11500
C1369       C  0.79507650  0.94080667  0.71805973    -0.02500
C1370       C  0.78237004  0.95145727  0.74115853     0.03000
C1371       C  0.81187429  0.02073445  0.74411132     0.09800
N1372       N  0.83957671  0.99758942  0.69845178     0.66200
H1373       H  0.82391576  0.94801344  0.68667622     0.19100
N1374       N  0.76313965  0.93630040  0.75635796     0.76600
H1375       H  0.77806276  0.98632632  0.76631785     0.10600
C1376       C  0.79515576  0.04287813  0.73819982     0.04300
C1377       C  0.79964161  0.06760514  0.75049126    -0.04400
C1378       C  0.82073609  0.07060928  0.76839432    -0.22800
C1379       C  0.83785284  0.04864744  0.77366051     0.13500
C1380       C  0.83329843  0.02392104  0.76154175    -0.12000
N1381       N  0.77320194  0.04039032  0.72034819     0.65200
H1382       H  0.78594055  0.08419223  0.74698905     0.13100
N1383       N  0.85931390  0.05090740  0.79209749     0.61800
H1384       H  0.84610543  0.00690348  0.76631497     0.09200
O1385       O  0.75993398  0.94079751  0.78097510    -0.39600
O1386       O  0.74810807  0.91960138  0.74515129    -0.38800
O1387       O  0.86353231  0.99629908  0.70616319    -0.38800
O1388       O  0.83269517  0.01556156  0.68202753    -0.36500
O1389       O  0.85729513  0.03969526  0.81461102    -0.37400
O1390       O  0.88214051  0.05748662  0.78355668    -0.33600
O1391       O  0.75004638  0.03654122  0.72971608    -0.35000
O1392       O  0.77582716  0.04827016  0.69652204    -0.39300
C1393       C  0.24553127  0.29607408  0.46067260    -0.13000
C1394       C  0.26819055  0.27996455  0.46567242     0.17400
C1395       C  0.27694951  0.26180317  0.44567354     0.03700
C1396       C  0.26406471  0.26123907  0.42104119    -0.11500
C1397       C  0.24252318  0.27834256  0.41564979    -0.02500
C1398       C  0.23263749  0.29533837  0.43595790     0.03000
C1399       C  0.28203435  0.28224021  0.49181419     0.09800
N1400       N  0.29930274  0.24422654  0.44955296     0.66200
H1401       H  0.27060446  0.24689888  0.40608555     0.19100
N1402       N  0.20939808  0.31170009  0.43193925     0.76600
H1403       H  0.23770608  0.30927300  0.47609963     0.10600
C1404       C  0.28981876  0.30740101  0.50207780     0.04300
C1405       C  0.30228278  0.30879651  0.52696284    -0.04400
C1406       C  0.30793946  0.28552859  0.54171764    -0.22800
C1407       C  0.30001513  0.26047523  0.53170072     0.13500
C1408       C  0.28668243  0.25911564  0.50725127    -0.12000
N1409       N  0.28633070  0.33157849  0.48699945     0.65200
H1410       H  0.30876039  0.32809317  0.53434767     0.13100
N1411       N  0.30501095  0.23628229  0.54622750     0.61800
H1412       H  0.27965033  0.23982769  0.50050229     0.09200
O1413       O  0.21205203  0.33510094  0.42267272    -0.39600
O1414       O  0.18791808  0.30564852  0.44381167    -0.38800
O1415       O  0.29505156  0.22029736  0.45660276    -0.38800
O1416       O  0.32099136  0.24959019  0.43778440    -0.36500
O1417       O  0.28784525  0.22841597  0.56302223    -0.37400
O1418       O  0.32212068  0.21971841  0.53734350    -0.33600
O1419       O  0.27073374  0.34973227  0.49556897    -0.35000
O1420       O  0.30241572  0.33683802  0.46821452    -0.39300
C1421       C  0.39535829  0.22448017  0.54345588    -0.13000
C1422       C  0.39816312  0.23099485  0.51638197     0.17400
C1423       C  0.38444341  0.25368317  0.50625524     0.03700
C1424       C  0.36818646  0.26930391  0.52324167    -0.11500
C1425       C  0.36541205  0.26267703  0.55034451    -0.02500
C1426       C  0.37933669  0.24009460  0.56043605     0.03000
C1427       C  0.41370619  0.21245472  0.49890950     0.09800
N1428       N  0.38744617  0.26151760  0.47897824     0.66200
H1429       H  0.35822200  0.28699758  0.51533640     0.19100
N1430       N  0.37641374  0.23199302  0.58767787     0.76600
H1431       H  0.40511299  0.20666124  0.55136438     0.10600
C1432       C  0.44062802  0.20582442  0.50430746     0.04300
C1433       C  0.45363500  0.18572212  0.48958888    -0.04400
C1434       C  0.44057134  0.17211709  0.46904938    -0.22800
C1435       C  0.41355791  0.17869538  0.46366828     0.13500
C1436       C  0.40047407  0.19877779  0.47852550    -0.12000
N1437       N  0.45510606  0.21934509  0.52466259     0.65200
H1438       H  0.47395796  0.18031556  0.49481331     0.13100
N1439       N  0.39905901  0.16525437  0.44326989     0.61800
H1440       H  0.37956842  0.20314342  0.47464143     0.09200
O1441       O  0.39523649  0.23601893  0.60377900    -0.39600
O1442       O  0.35808760  0.21589163  0.59401698    -0.38800
O1443       O  0.36889762  0.25687390  0.46278422    -0.38800
O1444       O  0.40560866  0.27774329  0.47249910    -0.36500
O1445       O  0.38242215  0.14747141  0.44981617    -0.37400
O1446       O  0.39771918  0.17567037  0.42033442    -0.33600
O1447       O  0.45965852  0.20743257  0.54644330    -0.35000
O1448       O  0.46873019  0.23965287  0.51848002    -0.39300
C1449       C  0.53186419  0.26734109  0.47104361    -0.13000
C1450       C  0.53971481  0.24970798  0.45058421     0.17400
C1451       C  0.55769708  0.25852000  0.43079172     0.03700
C1452       C  0.56860474  0.28412694  0.43246097    -0.11500
C1453       C  0.56106394  0.30176486  0.45294136    -0.02500
C1454       C  0.54184115  0.29367680  0.47226327     0.03000
C1455       C  0.52646699  0.22341652  0.44845541     0.09800
N1456       N  0.56441077  0.24200537  0.40842012     0.66200
H1457       H  0.58292605  0.29057791  0.41746468     0.19100
N1458       N  0.53151477  0.31179089  0.49240278     0.76600
H1459       H  0.51729670  0.26067266  0.48569754     0.10600
C1460       C  0.53363556  0.20140447  0.46473419     0.04300
C1461       C  0.51923002  0.17747791  0.46314524    -0.04400
C1462       C  0.49761041  0.17520633  0.44569451    -0.22800
C1463       C  0.49070111  0.19714055  0.42924237     0.13500
C1464       C  0.50518637  0.22094945  0.43066643    -0.12000
N1465       N  0.55516271  0.20316759  0.48320274     0.65200
H1466       H  0.52412450  0.16100983  0.47644495     0.13100
N1467       N  0.46881317  0.19559974  0.41120237     0.61800
H1468       H  0.49946846  0.23783499  0.41816437     0.09200
O1469       O  0.50927241  0.30717171  0.50355395    -0.39600
O1470       O  0.54327605  0.33338351  0.49782835    -0.38800
O1471       O  0.55281474  0.24609753  0.38647478    -0.38800
O1472       O  0.58558925  0.22803605  0.40885654    -0.36500
O1473       O  0.47311577  0.18779440  0.38761404    -0.37400
O1474       O  0.44736671  0.20808484  0.41656964    -0.33600
O1475       O  0.55004672  0.20775553  0.50747844    -0.35000
O1476       O  0.57786820  0.19389989  0.47669656    -0.39300
C1477       C  0.13258403  0.17787219  0.44358554    -0.13000
C1478       C  0.13791610  0.20334786  0.45384260     0.17400
C1479       C  0.12547346  0.21132966  0.47795241     0.03700
C1480       C  0.10855745  0.19354782  0.49163480    -0.11500
C1481       C  0.10332077  0.16789756  0.48147556    -0.02500
C1482       C  0.11545411  0.16023071  0.45699278     0.03000
C1483       C  0.15588791  0.22128772  0.43839906     0.09800
N1484       N  0.13049725  0.23703571  0.48928732     0.66200
H1485       H  0.10016067  0.19962800  0.51069035     0.19100
N1486       N  0.10993859  0.13494693  0.44490932     0.76600
H1487       H  0.14154628  0.17174614  0.42475477     0.10600
C1488       C  0.18333762  0.21509709  0.43519172     0.04300
C1489       C  0.19933498  0.23081376  0.41839864    -0.04400
C1490       C  0.18841538  0.25249660  0.40417890    -0.22800
C1491       C  0.16091149  0.25854201  0.40701159     0.13500
C1492       C  0.14493426  0.24309485  0.42425342    -0.12000
N1493       N  0.19513953  0.19243800  0.44827263     0.65200
H1494       H  0.22017475  0.22530688  0.41562490     0.13100
N1495       N  0.14888523  0.27990186  0.39202714     0.61800
H1496       H  0.12375632  0.24764658  0.42604275     0.09200
O1497       O  0.09073331  0.13334221  0.42881295    -0.39600
O1498       O  0.12781889  0.11688462  0.44473653    -0.38800
O1499       O  0.11309116  0.25540307  0.48706427    -0.38800
O1500       O  0.14847378  0.23918633  0.50667446    -0.36500
O1501       O  0.13333381  0.27454564  0.37309391    -0.37400
O1502       O  0.15617477  0.30380328  0.39554097    -0.33600
O1503       O  0.19808744  0.17074615  0.43558365    -0.35000
O1504       O  0.20829597  0.19599270  0.46933682    -0.39300
C1505       C  0.03368768  0.27933274  0.49410767    -0.13000
C1506       C  0.02096046  0.26138500  0.51168949     0.17400
C1507       C  0.00239851  0.27181143  0.53049875     0.03700
C1508       C  0.99665819  0.29936200  0.53102459    -0.11500
C1509       C  0.00862087  0.31708429  0.51286814    -0.02500
C1510       C  0.02738996  0.30688125  0.49420623     0.03000
C1511       C  0.02866863  0.23232791  0.51125786     0.09800
N1512       N  0.98802242  0.25458326  0.54823322     0.66200
H1513       H  0.98173232  0.30695239  0.54496838     0.19100
N1514       N  0.03962943  0.32383640  0.47467718     0.76600
H1515       H  0.04857535  0.27191447  0.48005363     0.10600
C1516       C  0.02933805  0.21721885  0.48734763     0.04300
C1517       C  0.03993693  0.19102783  0.48731894    -0.04400
C1518       C  0.04942149  0.17920775  0.51082961    -0.22800
C1519       C  0.04776290  0.19375384  0.53487836     0.13500
C1520       C  0.03771079  0.22010678  0.53486683    -0.12000
N1521       N  0.01914541  0.22803932  0.46297884     0.65200
H1522       H  0.04112483  0.17988913  0.46878576     0.13100
N1523       N  0.05822682  0.18282290  0.55906276     0.61800
H1524       H  0.03814699  0.23148351  0.55325618     0.09200
O1525       O  0.02849414  0.32676112  0.45233395    -0.39600
O1526       O  0.06434920  0.32833843  0.47637592    -0.38800
O1527       O  0.99342087  0.25478474  0.57279759    -0.38800
O1528       O  0.96607430  0.24494585  0.54075475    -0.36500
O1529       O  0.04227558  0.17434618  0.57674054    -0.37400
O1530       O  0.08216058  0.18749398  0.56523032    -0.33600
O1531       O  0.03522670  0.23402465  0.44440307    -0.35000
O1532       O  0.99466566  0.22533329  0.45775165    -0.39300
C1533       C  0.86941217  0.31029403  0.44291063    -0.13000
C1534       C  0.89205237  0.29365587  0.44621531     0.17400
C1535       C  0.89267138  0.26826120  0.43369957     0.03700
C1536       C  0.87136533  0.26058296  0.41745075    -0.11500
C1537       C  0.84898556  0.27736116  0.41412195    -0.02500
C1538       C  0.84799549  0.30230016  0.42706803     0.03000
C1539       C  0.91448574  0.30381576  0.46258079     0.09800
N1540       N  0.91420870  0.24968735  0.43786537     0.66200
H1541       H  0.87236951  0.24145774  0.40721234     0.19100
N1542       N  0.82565628  0.32000415  0.42362431     0.76600
H1543       H  0.86858648  0.32985305  0.45232080     0.10600
C1544       C  0.94028461  0.30818366  0.45170939     0.04300
C1545       C  0.95955490  0.32136733  0.46686344    -0.04400
C1546       C  0.95335988  0.33156158  0.49215900    -0.22800
C1547       C  0.92785514  0.32676672  0.50328998     0.13500
C1548       C  0.90890055  0.31256107  0.48868219    -0.12000
N1549       N  0.94629075  0.30262035  0.42433356     0.65200
H1550       H  0.97866348  0.32587502  0.45776454     0.13100
N1551       N  0.92050720  0.33711067  0.52892300     0.61800
H1552       H  0.88917492  0.30952577  0.49726282     0.09200
O1553       O  0.80485292  0.31695611  0.43766981    -0.39600
O1554       O  0.82565047  0.33682064  0.40475303    -0.38800
O1555       O  0.91316425  0.23412026  0.45774350    -0.38800
O1556       O  0.92928444  0.24355983  0.41845498    -0.36500
O1557       O  0.90652080  0.35829122  0.53036625    -0.37400
O1558       O  0.92245071  0.32214014  0.54917681    -0.33600
O1559       O  0.93766302  0.31853068  0.40667633    -0.35000
O1560       O  0.96574831  0.28726115  0.41871331    -0.39300
C1561       C  0.65748360  0.28807750  0.48815643    -0.13000
C1562       C  0.64676487  0.27832963  0.51219224     0.17400
C1563       C  0.62002771  0.28465459  0.51890761     0.03700
C1564       C  0.60471952  0.30096282  0.50195795    -0.11500
C1565       C  0.61557141  0.31151212  0.47830130    -0.02500
C1566       C  0.64224587  0.30468132  0.47131208     0.03000
C1567       C  0.66456062  0.26411250  0.53125125     0.09800
N1568       N  0.60828348  0.27500515  0.54313055     0.66200
H1569       H  0.58453893  0.30621682  0.50802163     0.19100
N1570       N  0.65416039  0.31434676  0.44716501     0.76600
H1571       H  0.67810329  0.28346322  0.48285251     0.10600
C1572       C  0.67498632  0.23824958  0.52599703     0.04300
C1573       C  0.69298496  0.22625334  0.54389005    -0.04400
C1574       C  0.70051507  0.23947869  0.56729180    -0.22800
C1575       C  0.69017315  0.26543037  0.57245083     0.13500
C1576       C  0.67245279  0.27751317  0.55441605    -0.12000
N1577       N  0.66644452  0.22341216  0.50331065     0.65200
H1578       H  0.70037089  0.20610957  0.53996173     0.13100
N1579       N  0.69819812  0.28017289  0.59541458     0.61800
H1580       H  0.66504030  0.29765769  0.55835035     0.09200
O1581       O  0.65364517  0.29989976  0.42653368    -0.39600
O1582       O  0.67019847  0.33372311  0.44809221    -0.38800
O1583       O  0.60676357  0.29029225  0.56313839    -0.38800
O1584       O  0.59453250  0.25391028  0.54271267    -0.36500
O1585       O  0.71813413  0.29544238  0.59366776    -0.37400
O1586       O  0.68205586  0.28294950  0.61472243    -0.33600
O1587       O  0.68274481  0.21879167  0.48448506    -0.35000
O1588       O  0.64505807  0.21021458  0.50477780    -0.39300
C1589       C  0.77445904  0.20028158  0.51575642    -0.13000
C1590       C  0.77896895  0.22644079  0.50635917     0.17400
C1591       C  0.77360521  0.24834586  0.52350462     0.03700
C1592       C  0.76301470  0.24389557  0.54900484    -0.11500
C1593       C  0.75737035  0.21794291  0.55793559    -0.02500
C1594       C  0.76355654  0.19589261  0.54131546     0.03000
C1595       C  0.78578731  0.23094694  0.47777083     0.09800
N1596       N  0.77796552  0.27534713  0.51497551     0.66200
H1597       H  0.75813282  0.26090269  0.56165410     0.19100
N1598       N  0.75656112  0.16925161  0.54907578     0.76600
H1599       H  0.77784968  0.18331092  0.50262022     0.10600
C1600       C  0.80961991  0.22109472  0.46594290     0.04300
C1601       C  0.81570487  0.22758746  0.43932180    -0.04400
C1602       C  0.79841535  0.24375136  0.42410890    -0.22800
C1603       C  0.77374749  0.25201753  0.43544264     0.13500
C1604       C  0.76767920  0.24548975  0.46197386    -0.12000
N1605       N  0.82835296  0.20548605  0.48093536     0.65200
H1606       H  0.83436165  0.22049917  0.43063905     0.13100
N1607       N  0.75496850  0.26785486  0.42074680     0.61800
H1608       H  0.74879569  0.25229638  0.47049214     0.09200
O1609       O  0.73434694  0.15992785  0.54196434    -0.39600
O1610       O  0.77459328  0.15336414  0.55712712    -0.38800
O1611       O  0.75814636  0.28997035  0.50894316    -0.38800
O1612       O  0.80015864  0.28616154  0.51963099    -0.36500
O1613       O  0.73394777  0.25684678  0.41257565    -0.37400
O1614       O  0.75509305  0.29302120  0.42340828    -0.33600
O1615       O  0.82935308  0.18039094  0.47765361    -0.35000
O1616       O  0.84760192  0.21705153  0.49210857    -0.39300
C1617       C  0.57356555  0.02001216  0.20319797    -0.13000
C1618       C  0.55191058  0.00282038  0.20740991     0.17400
C1619       C  0.53330386  0.99907530  0.18673345     0.03700
C1620       C  0.53658387  0.01260663  0.16237783    -0.11500
C1621       C  0.55758847  0.03065932  0.15867283    -0.02500
C1622       C  0.57636875  0.03407984  0.17915573     0.03000
C1623       C  0.54815899  0.99062537  0.23415130     0.09800
N1624       N  0.51063044  0.98220538  0.19044973     0.66200
H1625       H  0.52186686  0.01021474  0.14682024     0.19100
N1626       N  0.59802143  0.05231869  0.17598475     0.76600
H1627       H  0.58781550  0.02329009  0.21904487     0.10600
C1628       C  0.56669848  0.97190046  0.24444213     0.04300
C1629       C  0.56310253  0.96156411  0.27016909    -0.04400
C1630       C  0.54152964  0.96987620  0.28624296    -0.22800
C1631       C  0.52334758  0.98938291  0.27632941     0.13500
C1632       C  0.52679382  0.99938568  0.25033303    -0.12000
N1633       N  0.58897928  0.96278407  0.22879523     0.65200
H1634       H  0.57702179  0.94656476  0.27765450     0.13100
N1635       N  0.50168071  0.99972539  0.29221853     0.61800
H1636       H  0.51290570  0.01441596  0.24284496     0.09200
O1637       O  0.59584267  0.07573514  0.18532671    -0.39600
O1638       O  0.62085540  0.04336863  0.16950673    -0.38800
O1639       O  0.48792557  0.99271040  0.19471656    -0.38800
O1640       O  0.51224486  0.95780103  0.18392280    -0.36500
O1641       O  0.50310881  0.02353836  0.30052359    -0.37400
O1642       O  0.47877374  0.98970177  0.28964144    -0.33600
O1643       O  0.61195146  0.97187811  0.23342942    -0.35000
O1644       O  0.58676371  0.94185616  0.21489449    -0.39300
C1645       C  0.52762882  0.12879361  0.18336634    -0.13000
C1646       C  0.50549808  0.11629320  0.19523955     0.17400
C1647       C  0.49893712  0.09009485  0.18722182     0.03700
C1648       C  0.51441240  0.07694840  0.16776353    -0.11500
C1649       C  0.53680609  0.08913043  0.15598453    -0.02500
C1650       C  0.54306221  0.11568956  0.16366447     0.03000
C1651       C  0.48770003  0.13196451  0.21346584     0.09800
N1652       N  0.47644991  0.07657312  0.19852198     0.66200
H1653       H  0.50809918  0.05738611  0.16114522     0.19100
N1654       N  0.56447122  0.13001365  0.15127442     0.76600
H1655       H  0.53240264  0.14925816  0.18876057     0.10600
C1656       C  0.49618213  0.14084311  0.23873710     0.04300
C1657       C  0.47886259  0.15631057  0.25484434    -0.04400
C1658       C  0.45317378  0.16340560  0.24604921    -0.22800
C1659       C  0.44506104  0.15526297  0.22042117     0.13500
C1660       C  0.46219044  0.13949737  0.20453923    -0.12000
N1661       N  0.52205925  0.13381907  0.24856530     0.65200
H1662       H  0.48535166  0.16244942  0.27448600     0.13100
N1663       N  0.42021500  0.16432098  0.20953993     0.61800
H1664       H  0.45580294  0.13367976  0.18476201     0.09200
O1665       O  0.58657307  0.13156098  0.16312987    -0.39600
O1666       O  0.55911751  0.14676917  0.13309842    -0.38800
O1667       O  0.45495654  0.07556194  0.18553126    -0.38800
O1668       O  0.48005559  0.06051343  0.21770260    -0.36500
O1669       O  0.41943854  0.18625869  0.19690611    -0.37400
O1670       O  0.40124545  0.14800591  0.20712477    -0.33600
O1671       O  0.54029938  0.15114873  0.24828136    -0.35000
O1672       O  0.52479177  0.11304764  0.26278376    -0.39300
C1673       C  0.50498914  0.23542082  0.28718470    -0.13000
C1674       C  0.51376377  0.23975336  0.26088446     0.17400
C1675       C  0.49591886  0.23488680  0.23967453     0.03700
C1676       C  0.47050341  0.22475403  0.24501122    -0.11500
C1677       C  0.46251236  0.21860194  0.27105433    -0.02500
C1678       C  0.47962090  0.22470427  0.29240712     0.03000
C1679       C  0.54243985  0.24547388  0.25571128     0.09800
N1680       N  0.50354094  0.23899850  0.21246091     0.66200
H1681       H  0.45738645  0.22014029  0.22854511     0.19100
N1682       N  0.47279225  0.21736048  0.31913429     0.76600
H1683       H  0.51859651  0.23847117  0.30362267     0.10600
C1684       C  0.55481788  0.26930687  0.26423176     0.04300
C1685       C  0.58131644  0.27460130  0.25645752    -0.04400
C1686       C  0.59596380  0.25605716  0.24105749    -0.22800
C1687       C  0.58432875  0.23122242  0.23464750     0.13500
C1688       C  0.55778585  0.22622104  0.24195303    -0.12000
N1689       N  0.54065604  0.28850655  0.28022045     0.65200
H1690       H  0.59039681  0.29343147  0.26200140     0.13100
N1691       N  0.59856547  0.21155119  0.21925846     0.61800
H1692       H  0.54882902  0.20738968  0.23617991     0.09200
O1693       O  0.46552430  0.23535735  0.33539030    -0.39600
O1694       O  0.48034076  0.19480244  0.32794024    -0.38800
O1695       O  0.51128386  0.21909318  0.19880428    -0.38800
O1696       O  0.49499682  0.25967611  0.20054349    -0.36500
O1697       O  0.59865392  0.21334777  0.19414510    -0.37400
O1698       O  0.60441500  0.18930826  0.22990163    -0.33600
O1699       O  0.54367127  0.28817532  0.30520869    -0.35000
O1700       O  0.53065025  0.30907031  0.26928512    -0.39300
C1701       C  0.44970987  0.85659332  0.24762789    -0.13000
C1702       C  0.47523385  0.86373154  0.23836792     0.17400
C1703       C  0.48512563  0.85250871  0.21436976     0.03700
C1704       C  0.46952985  0.83413292  0.20028022    -0.11500
C1705       C  0.44395672  0.82726766  0.20957097    -0.02500
C1706       C  0.43398378  0.83870566  0.23331618     0.03000
C1707       C  0.49145125  0.88194120  0.25487546     0.09800
N1708       N  0.51005535  0.86098034  0.20320437     0.66200
H1709       H  0.47688539  0.82616106  0.18147527     0.19100
N1710       N  0.40763760  0.83262968  0.24277714     0.76600
H1711       H  0.44202547  0.86485506  0.26619436     0.10600
C1712       C  0.48281930  0.90840251  0.26016019     0.04300
C1713       C  0.49644555  0.92364390  0.27873118    -0.04400
C1714       C  0.51845396  0.91371316  0.29256023    -0.22800
C1715       C  0.52755042  0.88733602  0.28687535     0.13500
C1716       C  0.51408713  0.87182136  0.26799955    -0.12000
N1717       N  0.45993487  0.91962489  0.24722483     0.65200
H1718       H  0.48836965  0.94438613  0.28360913     0.13100
N1719       N  0.55018454  0.87596459  0.30017963     0.61800
H1720       H  0.52079661  0.85125717  0.26425928     0.09200
O1721       O  0.40189665  0.80893891  0.24951346    -0.39600
O1722       O  0.38918404  0.84992660  0.24054130    -0.38800
O1723       O  0.52949779  0.84467745  0.20202119    -0.38800
O1724       O  0.51084451  0.88237047  0.18968006    -0.36500
O1725       O  0.54655513  0.85912869  0.31869443    -0.37400
O1726       O  0.57303934  0.87773533  0.28948360    -0.33600
O1727       O  0.43774762  0.92010493  0.25942203    -0.35000
O1728       O  0.46326809  0.93466579  0.22719654    -0.39300
C1729       C  0.54088503  0.71523152  0.18426867    -0.13000
C1730       C  0.53352631  0.73694120  0.20059077     0.17400
C1731       C  0.55166834  0.74573652  0.22019754     0.03700
C1732       C  0.57679178  0.73317118  0.22254784    -0.11500
C1733       C  0.58407702  0.71168555  0.20595706    -0.02500
C1734       C  0.56586240  0.70268044  0.18673452     0.03000
C1735       C  0.50643774  0.74909345  0.19738731     0.09800
N1736       N  0.54488712  0.76719531  0.23795966     0.66200
H1737       H  0.59042278  0.73967821  0.23788319     0.19100
N1738       N  0.57242788  0.68073747  0.16955634     0.76600
H1739       H  0.52694604  0.70762983  0.16971831     0.10600
C1740       C  0.49724481  0.75790710  0.17219060     0.04300
C1741       C  0.47113507  0.76775966  0.16953491    -0.04400
C1742       C  0.45387638  0.76949326  0.19156394    -0.22800
C1743       C  0.46275205  0.76044265  0.21666583     0.13500
C1744       C  0.48877471  0.75006607  0.21931418    -0.12000
N1745       N  0.51447271  0.75805714  0.14929357     0.65200
H1746       H  0.46457735  0.77534976  0.15034104     0.13100
N1747       N  0.44556962  0.76134433  0.23954438     0.61800
H1748       H  0.49504420  0.74236133  0.23853796     0.09200
O1749       O  0.58366650  0.68541855  0.14741702    -0.39600
O1750       O  0.56090284  0.65857846  0.17308003    -0.38800
O1751       O  0.53809602  0.76184000  0.26168537    -0.38800
O1752       O  0.55177382  0.79078944  0.23208794    -0.36500
O1753       O  0.43102825  0.74139480  0.24467240    -0.37400
O1754       O  0.45047026  0.77781246  0.25791831    -0.33600
O1755       O  0.51066419  0.74135559  0.13084470    -0.35000
O1756       O  0.52841145  0.77852808  0.14456077    -0.39300
C1757       C  0.56906516  0.32270717  0.18217443    -0.13000
C1758       C  0.58075149  0.34794621  0.17839751     0.17400
C1759       C  0.60709784  0.35163335  0.18785592     0.03700
C1760       C  0.62065478  0.33051731  0.20051980    -0.11500
C1761       C  0.60979763  0.30464652  0.20232541    -0.02500
C1762       C  0.58368621  0.30085639  0.19246457     0.03000
C1763       C  0.56543547  0.36989364  0.16446678     0.09800
N1764       N  0.62137965  0.37591855  0.18305631     0.66200
H1765       H  0.64064363  0.33420558  0.20781857     0.19100
N1766       N  0.57256692  0.27482419  0.18975543     0.76600
H1767       H  0.54869684  0.31941417  0.17590596     0.10600
C1768       C  0.55039696  0.36532066  0.14108255     0.04300
C1769       C  0.53744142  0.38676192  0.12829362    -0.04400
C1770       C  0.54026687  0.41340148  0.13692376    -0.22800
C1771       C  0.55522123  0.41795047  0.16032194     0.13500
C1772       C  0.56622512  0.39617483  0.17443551    -0.12000
N1773       N  0.54939045  0.33947789  0.12881697     0.65200
H1774       H  0.52607844  0.38255516  0.11046333     0.13100
N1775       N  0.56247240  0.44424777  0.16851725     0.61800
H1776       H  0.57672960  0.40020046  0.19277809     0.09200
O1777       O  0.54956767  0.27069421  0.19927291    -0.39600
O1778       O  0.58105692  0.25998895  0.17111110    -0.38800
O1779       O  0.62674580  0.39097083  0.20248179    -0.38800
O1780       O  0.63452393  0.37835024  0.16159484    -0.36500
O1781       O  0.58137597  0.45566451  0.15628640    -0.37400
O1782       O  0.55725600  0.45128282  0.19216710    -0.33600
O1783       O  0.52771245  0.32669228  0.12934654    -0.35000
O1784       O  0.56709290  0.33313121  0.11182074    -0.39300
C1785       C  0.57248132  0.60849656  0.23389269    -0.13000
C1786       C  0.55420919  0.61769674  0.25325597     0.17400
C1787       C  0.55368005  0.64537487  0.25947439     0.03700
C1788       C  0.57181162  0.66293205  0.24698100    -0.11500
C1789       C  0.59070003  0.65356197  0.22820764    -0.02500
C1790       C  0.59047730  0.62601736  0.22131557     0.03000
C1791       C  0.53779555  0.59759498  0.26813885     0.09800
N1792       N  0.53611278  0.65578363  0.27963712     0.66200
H1793       H  0.57198945  0.68375946  0.25311302     0.19100
N1794       N  0.60811707  0.61549946  0.20123558     0.76600
H1795       H  0.57301326  0.58737452  0.22872352     0.10600
C1796       C  0.50976696  0.59574654  0.26523050     0.04300
C1797       C  0.49532895  0.57667512  0.28007594    -0.04400
C1798       C  0.50834568  0.55877949  0.29736307    -0.22800
C1799       C  0.53636207  0.56009779  0.29977507     0.13500
C1800       C  0.55081601  0.57932780  0.28522747    -0.12000
N1801       N  0.49566966  0.61263711  0.24694684     0.65200
H1802       H  0.47375231  0.57632458  0.27856769     0.13100
N1803       N  0.55021377  0.54274023  0.31786565     0.61800
H1804       H  0.57232181  0.58030430  0.28759887     0.09200
O1805       O  0.60036847  0.61482511  0.17734155    -0.39600
O1806       O  0.62788630  0.60119187  0.20807377    -0.38800
O1807       O  0.54387954  0.65606830  0.30353701    -0.38800
O1808       O  0.51694949  0.67093357  0.27286086    -0.36500
O1809       O  0.55423649  0.55020050  0.34153294    -0.37400
O1810       O  0.55596607  0.51900391  0.31106459    -0.33600
O1811       O  0.49238783  0.60458087  0.22335334    -0.35000
O1812       O  0.48052482  0.63093083  0.25597253    -0.39300
C1813       C  0.46762151  0.49721326  0.24257164    -0.13000
C1814       C  0.49003354  0.48166667  0.23555857     0.17400
C1815       C  0.50896850  0.47489905  0.25527763     0.03700
C1816       C  0.50634606  0.48560727  0.28101479    -0.11500
C1817       C  0.48468807  0.50236552  0.28757253    -0.02500
C1818       C  0.46459108  0.50717676  0.26852649     0.03000
C1819       C  0.49488792  0.47551736  0.20707062     0.09800
N1820       N  0.53113380  0.45756484  0.24936138     0.66200
H1821       H  0.52155671  0.48137291  0.29575103     0.19100
N1822       N  0.44097992  0.52207386  0.27534764     0.76600
H1823       H  0.45272126  0.50210408  0.22766481     0.10600
C1824       C  0.48243002  0.45395214  0.19430787     0.04300
C1825       C  0.48858995  0.44829642  0.16753130    -0.04400
C1826       C  0.50645531  0.46445524  0.15301696    -0.22800
C1827       C  0.51763502  0.48728831  0.16534471     0.13500
C1828       C  0.51167270  0.49241854  0.19232292    -0.12000
N1829       N  0.46323637  0.43800372  0.20823682     0.65200
H1830       H  0.47957607  0.43118468  0.15796711     0.13100
N1831       N  0.53615760  0.50452548  0.15154055     0.61800
H1832       H  0.52079375  0.50930781  0.20220248     0.09200
O1833       O  0.42201008  0.51015078  0.28697455    -0.39600
O1834       O  0.43642295  0.54428369  0.26403581    -0.38800
O1835       O  0.55411489  0.46746757  0.24651017    -0.38800
O1836       O  0.52897039  0.43270751  0.25366828    -0.36500
O1837       O  0.55098244  0.49566853  0.13298665    -0.37400
O1838       O  0.53858765  0.52866765  0.15866350    -0.33600
O1839       O  0.43914315  0.44574042  0.20942614    -0.35000
O1840       O  0.47094730  0.41860365  0.22256070    -0.39300
C1841       C  0.27926232  0.52278040  0.71113687    -0.13000
C1842       C  0.25473093  0.50925600  0.70944153     0.17400
C1843       C  0.23290572  0.52237432  0.69697243     0.03700
C1844       C  0.23589655  0.54834028  0.68679085    -0.11500
C1845       C  0.26053751  0.56130128  0.68782736    -0.02500
C1846       C  0.28237379  0.54849134  0.70014004     0.03000
C1847       C  0.25167520  0.48261689  0.72269147     0.09800
N1848       N  0.20810657  0.50901226  0.69288276     0.66200
H1849       H  0.21937425  0.55785938  0.67641935     0.19100
N1850       N  0.30778421  0.56138087  0.70134907     0.76600
H1851       H  0.29594558  0.51360202  0.72149908     0.10600
C1852       C  0.27032944  0.46140648  0.71880350     0.04300
C1853       C  0.26832652  0.43787845  0.73406918    -0.04400
C1854       C  0.24735257  0.43449962  0.75239195    -0.22800
C1855       C  0.22807113  0.45502170  0.75540125     0.13500
C1856       C  0.23064787  0.47900073  0.74107781    -0.12000
N1857       N  0.29102491  0.46314251  0.69906073     0.65200
H1858       H  0.28361018  0.42242955  0.73214047     0.13100
N1859       N  0.20590355  0.45182915  0.77322824     0.61800
H1860       H  0.21637881  0.49508852  0.74480598     0.09200
O1861       O  0.32815129  0.55043903  0.69085775    -0.39600
O1862       O  0.30982240  0.58405785  0.71226551    -0.38800
O1863       O  0.18754135  0.51676238  0.70556512    -0.38800
O1864       O  0.20535907  0.49482442  0.67227545    -0.36500
O1865       O  0.18494780  0.44077072  0.76493996    -0.37400
O1866       O  0.20497595  0.46518970  0.79456663    -0.33600
O1867       O  0.31484822  0.46671680  0.70629599    -0.35000
O1868       O  0.28668312  0.45429043  0.67594354    -0.39300
C1869       C  0.32832112  0.54655944  0.60909363    -0.13000
C1870       C  0.31474453  0.52262597  0.60318528     0.17400
C1871       C  0.28848952  0.51958645  0.61373914     0.03700
C1872       C  0.27660357  0.54011758  0.62905177    -0.11500
C1873       C  0.28994384  0.56416665  0.63395284    -0.02500
C1874       C  0.31597847  0.56741970  0.62358057     0.03000
C1875       C  0.32831312  0.50134907  0.58629064     0.09800
N1876       N  0.27278807  0.49657461  0.60789401     0.66200
H1877       H  0.25619616  0.53768504  0.63600629     0.19100
N1878       N  0.33000460  0.59201854  0.62727486     0.76600
H1879       H  0.34883817  0.54917312  0.60265727     0.10600
C1880       C  0.34368020  0.50797233  0.56325186     0.04300
C1881       C  0.35728592  0.48789161  0.54892240    -0.04400
C1882       C  0.35531254  0.46086534  0.55605214    -0.22800
C1883       C  0.33990944  0.45387270  0.57857848     0.13500
C1884       C  0.32699728  0.47400642  0.59371558    -0.12000
N1885       N  0.34563383  0.53494146  0.55372110     0.65200
H1886       H  0.36988696  0.49360806  0.53222470     0.13100
N1887       N  0.33687722  0.42635187  0.58601645     0.61800
H1888       H  0.31641658  0.46813675  0.61167217     0.09200
O1889       O  0.33391945  0.60742380  0.60762131    -0.39600
O1890       O  0.33588109  0.59973679  0.65045436    -0.38800
O1891       O  0.26806250  0.47985187  0.62625073    -0.38800
O1892       O  0.25773683  0.49721852  0.58781505    -0.36500
O1893       O  0.31834265  0.41275535  0.57596449    -0.37400
O1894       O  0.35430770  0.41488384  0.60024809    -0.33600
O1895       O  0.36786225  0.54668479  0.55489410    -0.35000
O1896       O  0.32802221  0.54383400  0.53802398    -0.39300
C1897       C  0.30132997  0.42639876  0.48665215    -0.13000
C1898       C  0.29503240  0.45295583  0.47923056     0.17400
C1899       C  0.31561939  0.47220411  0.47907017     0.03700
C1900       C  0.34074209  0.46572342  0.48955898    -0.11500
C1901       C  0.34618650  0.43996163  0.49922729    -0.02500
C1902       C  0.32696252  0.41974837  0.49613936     0.03000
C1903       C  0.26687360  0.46066595  0.47295608     0.09800
N1904       N  0.31190526  0.49785781  0.46682520     0.66200
H1905       H  0.35609586  0.48081147  0.49010392     0.19100
N1906       N  0.33346453  0.39243778  0.50227553     0.76600
H1907       H  0.28619576  0.41105416  0.48574228     0.10600
C1908       C  0.25252391  0.47900269  0.48931330     0.04300
C1909       C  0.22660637  0.48706453  0.48240634    -0.04400
C1910       C  0.21453256  0.47737224  0.45936074    -0.22800
C1911       C  0.22780895  0.45769814  0.44401178     0.13500
C1912       C  0.25398166  0.44960225  0.45070691    -0.12000
N1913       N  0.26364324  0.48914066  0.51340381     0.65200
H1914       H  0.21595574  0.50153985  0.49476229     0.13100
N1915       N  0.21433515  0.44501180  0.42248484     0.61800
H1916       H  0.26427877  0.43472758  0.43853797     0.09200
O1917       O  0.33452093  0.38477412  0.52626146    -0.39600
O1918       O  0.34295498  0.37750970  0.48415345    -0.38800
O1919       O  0.31318406  0.51873449  0.48093033    -0.38800
O1920       O  0.31531138  0.49982135  0.44191427    -0.36500
O1921       O  0.19574733  0.42871439  0.42741156    -0.37400
O1922       O  0.21832181  0.45283096  0.39883437    -0.33600
O1923       O  0.26850926  0.51387748  0.51514913    -0.35000
O1924       O  0.26108251  0.47556176  0.53453249    -0.39300
C1925       C  0.24178933  0.54574344  0.31911555    -0.13000
C1926       C  0.24304552  0.55524408  0.34544027     0.17400
C1927       C  0.25776296  0.57895253  0.35012488     0.03700
C1928       C  0.27015155  0.59230420  0.32881330    -0.11500
C1929       C  0.26678977  0.58405429  0.30227339    -0.02500
C1930       C  0.25183903  0.56065768  0.29756424     0.03000
C1931       C  0.22837234  0.54064168  0.36728145     0.09800
N1932       N  0.25899330  0.59097133  0.37596384     0.66200
H1933       H  0.28153108  0.61019272  0.33309394     0.19100
N1934       N  0.24324757  0.55373779  0.27142488     0.76600
H1935       H  0.23153357  0.52721265  0.31489220     0.10600
C1936       C  0.20223678  0.53047776  0.36376566     0.04300
C1937       C  0.18922327  0.51743484  0.38482913    -0.04400
C1938       C  0.20032989  0.51589869  0.41045173    -0.22800
C1939       C  0.22622185  0.52638787  0.41415887     0.13500
C1940       C  0.24040374  0.53701318  0.39230781    -0.12000
N1941       N  0.18756939  0.53482618  0.33971824     0.65200
H1942       H  0.16935144  0.50967792  0.38134566     0.13100
N1943       N  0.23739720  0.52946142  0.44006825     0.61800
H1944       H  0.26066839  0.54370494  0.39545000     0.09200
O1945       O  0.24722192  0.53013819  0.26314057    -0.39600
O1946       O  0.22486277  0.56765762  0.26099533    -0.38800
O1947       O  0.28083169  0.59037924  0.38844988    -0.38800
O1948       O  0.24134114  0.60802710  0.38256527    -0.36500
O1949       O  0.22762485  0.54706506  0.45547071    -0.37400
O1950       O  0.26081539  0.52086796  0.44422576    -0.33600
O1951       O  0.18292674  0.51510205  0.32474017    -0.35000
O1952       O  0.17321709  0.55569420  0.33765819    -0.39300
C1953       C  0.29713737  0.52623907  0.22469886    -0.13000
C1954       C  0.31058101  0.51131851  0.24420462     0.17400
C1955       C  0.31988570  0.52429575  0.26715667     0.03700
C1956       C  0.31440742  0.55170397  0.27084026    -0.11500
C1957       C  0.29960292  0.56646448  0.25198177    -0.02500
C1958       C  0.29136907  0.55354356  0.22832615     0.03000
C1959       C  0.31488927  0.48238543  0.23926366     0.09800
N1960       N  0.33462904  0.50989488  0.28693826     0.66200
H1961       H  0.32110737  0.56146053  0.28886638     0.19100
N1962       N  0.27551727  0.56693418  0.20863771     0.76600
H1963       H  0.29014136  0.51627044  0.20687595     0.10600
C1964       C  0.29511365  0.46345516  0.24602263     0.04300
C1965       C  0.29608797  0.43778836  0.23468296    -0.04400
C1966       C  0.31651100  0.43072113  0.21677177    -0.22800
C1967       C  0.33741229  0.44883253  0.21176922     0.13500
C1968       C  0.33636464  0.47457889  0.22283929    -0.12000
N1969       N  0.27311345  0.47048632  0.26305244     0.65200
H1970       H  0.28024266  0.42368586  0.23891828     0.13100
N1971       N  0.35932862  0.44158333  0.19474553     0.61800
H1972       H  0.35163493  0.48899005  0.21749178     0.09200
O1973       O  0.28258137  0.56543226  0.18443448    -0.39600
O1974       O  0.25157595  0.57312561  0.21406602    -0.38800
O1975       O  0.35976504  0.51185760  0.28748059    -0.38800
O1976       O  0.32245284  0.50010257  0.30678932    -0.36500
O1977       O  0.36030268  0.45070400  0.17125233    -0.37400
O1978       O  0.38020110  0.43164346  0.20493723    -0.33600
O1979       O  0.25019613  0.47367807  0.25308410    -0.35000
O1980       O  0.27515461  0.46672735  0.28787031    -0.39300
C1981       C  0.33730137  0.47521613  0.86591164    -0.13000
C1982       C  0.31248737  0.48709073  0.86003277     0.17400
C1983       C  0.30512654  0.51122486  0.87307953     0.03700
C1984       C  0.32304905  0.52347016  0.89072970    -0.11500
C1985       C  0.34818972  0.51186745  0.89584038    -0.02500
C1986       C  0.35503478  0.48727229  0.88358352     0.03000
C1987       C  0.29426903  0.47249647  0.84178359     0.09800
N1988       N  0.27995293  0.52396260  0.86802901     0.66200
H1989       H  0.31758517  0.54241073  0.89997671     0.19100
N1990       N  0.37949531  0.47365424  0.88981432     0.76600
H1991       H  0.34276641  0.45607241  0.85708388     0.10600
C1992       C  0.30236980  0.46566256  0.81557423     0.04300
C1993       C  0.28767272  0.44713521  0.80080366    -0.04400
C1994       C  0.26463301  0.43516856  0.81143458    -0.22800
C1995       C  0.25572339  0.44307347  0.83717901     0.13500
C1996       C  0.27050970  0.46162028  0.85199490    -0.12000
N1997       N  0.32592163  0.47688013  0.80387937     0.65200
H1998       H  0.29526636  0.44103989  0.78143468     0.13100
N1999       N  0.23205570  0.43207622  0.84888937     0.61800
H2000       H  0.26412020  0.46645457  0.87216215     0.09200
O2001       O  0.39837111  0.47340993  0.87294575    -0.39600
O2002       O  0.37986799  0.45708833  0.90890696    -0.38800
O2003       O  0.26183622  0.52324345  0.88569197    -0.38800
O2004       O  0.27813960  0.54079793  0.84925728    -0.36500
O2005       O  0.21046682  0.44534568  0.84776175    -0.37400
O2006       O  0.23424377  0.41360762  0.86603608    -0.33600
O2007       O  0.34716668  0.46301092  0.80291967    -0.35000
O2008       O  0.32373813  0.49731469  0.78909961    -0.39300
C2009       C  0.25032436  0.45150672  0.14872141    -0.13000
C2010       C  0.26346622  0.46315593  0.12673573     0.17400
C2011       C  0.29102678  0.45775620  0.12303289     0.03700
C2012       C  0.30425962  0.43953791  0.13998945    -0.11500
C2013       C  0.29078761  0.42707093  0.16125484    -0.02500
C2014       C  0.26358459  0.43348628  0.16578738     0.03000
C2015       C  0.24734671  0.47921831  0.10727836     0.09800
N2016       N  0.30562474  0.46954122  0.10147196     0.66200
H2017       H  0.32502005  0.43442860  0.13596155     0.19100
N2018       N  0.24850512  0.42034651  0.18623968     0.76600
H2019       H  0.22923022  0.45564876  0.15207003     0.10600
C2020       C  0.22533669  0.46752373  0.09430175     0.04300
C2021       C  0.20796668  0.48340031  0.07905970    -0.04400
C2022       C  0.21246346  0.51083941  0.07547842    -0.22800
C2023       C  0.23475953  0.52261296  0.08766808     0.13500
C2024       C  0.25208916  0.50679155  0.10343825    -0.12000
N2025       N  0.22041386  0.43938841  0.09629063     0.65200
H2026       H  0.19075200  0.47421265  0.06989305     0.13100
N2027       N  0.23916784  0.55079894  0.08522710     0.61800
H2028       H  0.26862037  0.51622525  0.11351274     0.09200
O2029       O  0.24025867  0.43380124  0.20600471    -0.39600
O2030       O  0.23738295  0.39837623  0.18098054    -0.38800
O2031       O  0.32072828  0.48909386  0.10616367    -0.38800
O2032       O  0.30899496  0.45634569  0.08023597    -0.36500
O2033       O  0.22619708  0.56690098  0.09993994    -0.37400
O2034       O  0.25212783  0.55969940  0.06544619    -0.33600
O2035       O  0.20141958  0.43122132  0.11082333    -0.35000
O2036       O  0.23053423  0.42381100  0.07906407    -0.39300
C2037       C  0.24782859  0.54495826  0.98693419    -0.13000
C2038       C  0.26371248  0.52170889  0.99049312     0.17400
C2039       C  0.25267199  0.50019912  0.00530306     0.03700
C2040       C  0.22683707  0.50266929  0.01622922    -0.11500
C2041       C  0.21273425  0.52715501  0.01571099    -0.02500
C2042       C  0.22323378  0.54830933  0.00019833     0.03000
C2043       C  0.29208111  0.52205964  0.98032653     0.09800
N2044       N  0.26834395  0.47728194  0.01271018     0.66200
H2045       H  0.21875904  0.48594783  0.02733285     0.19100
N2046       N  0.21082113  0.57425337  0.99995552     0.76600
H2047       H  0.25549138  0.56163452  0.97532865     0.10600
C2048       C  0.30400461  0.50099959  0.96531438     0.04300
C2049       C  0.32967144  0.50421776  0.95427584    -0.04400
C2050       C  0.34300314  0.52885234  0.95545992    -0.22800
C2051       C  0.33155409  0.54958939  0.97113423     0.13500
C2052       C  0.30699946  0.54555912  0.98414591    -0.12000
N2053       N  0.28953368  0.47749400  0.95832601     0.65200
H2054       H  0.33835567  0.48791145  0.94275986     0.13100
N2055       N  0.34291169  0.57578008  0.97193923     0.61800
H2056       H  0.29863280  0.56188190  0.99591089     0.09200
O2057       O  0.21620353  0.59067292  0.01823581    -0.39600
O2058       O  0.20043742  0.58285845  0.97866786    -0.38800
O2059       O  0.28482012  0.47958090  0.03149716    -0.38800
O2060       O  0.26017628  0.45419047  0.00671475    -0.36500
O2061       O  0.33739581  0.59225858  0.95357253    -0.37400
O2062       O  0.35161498  0.58453827  0.99380516    -0.33600
O2063       O  0.27264105  0.47903603  0.93978511    -0.35000
O2064       O  0.29906975  0.45477456  0.96448569    -0.39300
loop_ 
_geom_bond_atom_site_label_1 
_geom_bond_atom_site_label_2 
_geom_bond_distance 
_geom_bond_site_symmetry_2 
_ccdc_geom_bond_type 
N1            C5   1.364       .  A
N1            C2   1.364       .  A
N1         C2041   1.449       .  S
C2            C3   1.378       .  A
C2         C2022   1.484       .  S
C3            C4   1.373       .  A
C3            H6   1.082       .  S
C4            C5   1.385       .  A
C4            H7   1.082       .  S
C5          C332   1.485       .  S
N8           C12   1.365       .  A
N8            C9   1.363       .  A
N8         C2050   1.450       .  S
C9           C10   1.382       .  A
C9          C356   1.478       .  S
C10          C11   1.372       .  A
C10          H13   1.082       .  S
C11          C12   1.380       .  A
C11          H14   1.082       .  S
C12        C1985   1.487       .  S
N15          C19   1.365       .  A
N15          C16   1.363       .  A
N15        C1957   1.443       .  S
C16          C17   1.379       .  A
C16         C652   1.477       .  S
C17          C18   1.371       .  A
C17          H20   1.082       .  S
C18          C19   1.386       .  A
C18          H21   1.082       .  S
C19        C1929   1.497       .  S
N22          C26   1.356       .  A
N22          C23   1.357       .  A
N22        C1966   1.435       .  S
C23          C24   1.381       .  A
C23        C2013   1.487       .  S
C24          C25   1.380       .  A
C24          H27   1.082       .  S
C25          C26   1.383       .  A
C25          H28   1.082       .  S
C26         C710   1.480       .  S
N29          C33   1.357       .  A
N29          C30   1.356       .  A
N29        C1901   1.438       .  S
C30          C31   1.385       .  A
C30         C686   1.480       .  S
C31          C32   1.378       .  A
C31          H34   1.082       .  S
C32          C33   1.380       .  A
C32          H35   1.082       .  S
C33        C1882   1.484       .  S
N36          C40   1.356       .  A
N36          C37   1.363       .  A
N36        C1910   1.437       .  S
C37          C38   1.388       .  A
C37        C1938   1.496       .  S
C38          C39   1.372       .  A
C38          H41   1.082       .  S
C39          C40   1.377       .  A
C39          H42   1.082       .  S
C40         C470   1.471       .  S
N43          C47   1.355       .  A
N43          C44   1.357       .  A
N43        C1845   1.434       .  S
C44          C45   1.383       .  A
C44        C1873   1.489       .  S
C45          C46   1.379       .  A
C45          H48   1.082       .  S
C46          C47   1.382       .  A
C46          H49   1.082       .  S
C47         C549   1.479       .  S
N50          C54   1.362       .  A
N50          C51   1.360       .  A
N50        C1854   1.438       .  S
C51          C52   1.383       .  A
C51         C638   1.487       .  S
C52          C53   1.378       .  A
C52          H55   1.082       .  S
C53          C54   1.383       .  A
C53          H56   1.081       .  S
C54        C1994   1.494       .  S
N57          C61   1.358       .  A
N57          C58   1.356       .  A
N57        C1817   1.436       .  S
C58          C59   1.383       .  A
C58         C676   1.478       .  S
C59          C60   1.376       .  A
C59          H62   1.082       .  S
C60          C61   1.380       .  A
C60          H63   1.082       .  S
C61        C1798   1.484       .  S
N64          C68   1.363       .  A
N64          C65   1.364       .  A
N64        C1826   1.439       .  S
C65          C66   1.386       .  A
C65        C1770   1.499       .  S
C66          C67   1.373       .  A
C66          H69   1.082       .  S
C67          C68   1.379       .  A
C67          H70   1.082       .  S
C68         C366   1.482       .  S
N71          C75   1.361       .  A
N71          C72   1.363       .  A
N71        C1733   1.438       .  S
C72          C73   1.384       .  A
C72        C1789   1.498       .  S
C73          C74   1.377       .  A
C73          H76   1.081       .  S
C74          C75   1.381       .  A
C74          H77   1.082       .  S
C75         C597   1.486       .  S
N78          C82   1.354       .  A
N78          C79   1.356       .  A
N78        C1742   1.436       .  S
C79          C80   1.384       .  A
C79         C662   1.476       .  S
C80          C81   1.373       .  A
C80          H83   1.082       .  S
C81          C82   1.380       .  A
C81          H84   1.082       .  S
C82        C1705   1.474       .  S
N85          C89   1.356       .  A
N85          C86   1.358       .  A
N85        C1677   1.438       .  S
C86          C87   1.381       .  A
C86        C1658   1.486       .  S
C87          C88   1.378       .  A
C87          H90   1.082       .  S
C88          C89   1.385       .  A
C88          H91   1.082       .  S
C89         C717   1.479       .  S
N92          C96   1.365       .  A
N92          C93   1.359       .  A
N92        C1686   1.439       .  S
C93          C94   1.378       .  A
C93         C604   1.475       .  S
C94          C95   1.371       .  A
C94          H97   1.082       .  S
C95          C96   1.388       .  A
C95          H98   1.082       .  S
C96        C1761   1.500       .  S
N99         C103   1.357       .  A
N99         C100   1.362       .  A
N99        C1621   1.438       .  S
C100        C101   1.384       .  A
C100       C1649   1.496       .  S
C101        C102   1.380       .  A
C101        H104   1.081       .  S
C102        C103   1.382       .  A
C102        H105   1.082       .  S
C103        C228   1.484       .  S
N106        C110   1.361       .  A
N106        C107   1.358       .  A
N106       C1630   1.439       .  S
C107        C108   1.382       .  A
C107        C252   1.476       .  S
C108        C109   1.374       .  A
C108        H111   1.082       .  S
C109        C110   1.381       .  A
C109        H112   1.083       .  S
C110       C1714   1.485       .  S
N113        C117   1.357       .  A
N113        C114   1.358       .  A
N113       C1593   1.439       .  S
C114        C115   1.381       .  A
C114       C1574   1.484       .  S
C115        C116   1.378       .  A
C115        H118   1.082       .  S
C116        C117   1.384       .  A
C116        H119   1.082       .  S
C117        C573   1.479       .  S
N120        C124   1.357       .  A
N120        C121   1.356       .  A
N120       C1602   1.443       .  S
C121        C122   1.383       .  A
C121        C614   1.470       .  S
C122        C123   1.375       .  A
C122        H125   1.082       .  S
C123        C124   1.379       .  A
C123        H126   1.082       .  S
C124       C1537   1.475       .  S
N127        C131   1.359       .  A
N127        C128   1.362       .  A
N127       C1518   1.441       .  S
C128        C129   1.383       .  A
C128       C1481   1.491       .  S
C129        C130   1.375       .  A
C129        H132   1.081       .  S
C130        C131   1.382       .  A
C130        H133   1.082       .  S
C131        C436   1.480       .  S
N134        C138   1.359       .  A
N134        C135   1.361   1_655  A
N134       C1509   1.442   1_655  S
C135        C136   1.384   1_455  A
C135        C460   1.478       .  S
C136        C137   1.372       .  A
C136        H139   1.082       .  S
C137        C138   1.380       .  A
C137        H140   1.082       .  S
C138       C1546   1.480       .  S
N141        C145   1.354       .  A
N141        C142   1.359       .  A
N141       C1462   1.439       .  S
C142        C143   1.384       .  A
C142       C1434   1.487       .  S
C143        C144   1.379       .  A
C143        H146   1.081       .  S
C144        C145   1.382       .  A
C144        H147   1.082       .  S
C145        C262   1.476       .  S
N148        C152   1.359       .  A
N148        C149   1.359       .  A
N148       C1453   1.436       .  S
C149        C150   1.383       .  A
C149        C693   1.484       .  S
C150        C151   1.377       .  A
C150        H153   1.082       .  S
C151        C152   1.383       .  A
C151        H154   1.081       .  S
C152       C1565   1.490       .  S
N155        C159   1.360       .  A
N155        C156   1.358       .  A
N155       C1406   1.440       .  S
C156        C157   1.383       .  A
C156        C628   1.480       .  S
C157        C158   1.373       .  A
C157        H160   1.082       .  S
C158        C159   1.382       .  A
C158        H161   1.082       .  S
C159       C1425   1.482       .  S
N162        C166   1.356       .  A
N162        C163   1.354       .  A
N162       C1397   1.437       .  S
C163        C164   1.384       .  A
C163       C1490   1.482       .  S
C164        C165   1.379       .  A
C164        H167   1.082       .  S
C165        C166   1.382       .  A
C165        H168   1.082       .  S
C166        C700   1.478       .  S
N169        C173   1.364       .  A
N169        C170   1.362       .  A
N169       C1369   1.436       .  S
C170        C171   1.377       .  A
C170        C508   1.479       .  S
C171        C172   1.369       .  A
C171        H174   1.082       .  S
C172        C173   1.389       .  A
C172        H175   1.082       .  S
C173       C1350   1.502       .  S
N176        C180   1.358       .  A
N176        C177   1.355       .  A
N176       C1378   1.435       .  S
C177        C178   1.383       .  A
C177        C556   1.483       .  S
C178        C179   1.381       .  A
C178        H181   1.082       .  S
C179        C180   1.383       .  A
C179        H182   1.081       .  S
C180       C1322   1.491       .  S
N183        C187   1.361       .  A
N183        C184   1.366   1_545  A
N183       C1285   1.438       .  S
C184        C185   1.389       .  A
C184       C1341   1.506       .  S
C185        C186   1.372       .  A
C185        H188   1.082       .  S
C186        C187   1.377   1_565  A
C186        H189   1.082       .  S
C187        C269   1.479       .  S
N190        C194   1.356       .  A
N190        C191   1.355       .  A
N190       C1294   1.434       .  S
C191        C192   1.385       .  A
C191        C446   1.481       .  S
C192        C193   1.380       .  A
C192        H195   1.082       .  S
C193        C194   1.381       .  A
C193        H196   1.082       .  S
C194       C1257   1.487       .  S
N197        C201   1.365       .  A
N197        C198   1.358       .  A
N197       C1229   1.437       .  S
C198        C199   1.377       .  A
C198        C621   1.478       .  S
C199        C200   1.374       .  A
C199        H202   1.082       .  S
C200        C201   1.388       .  A
C200        H203   1.080       .  S
C201       C1201   1.505       .  S
N204        C208   1.362       .  A
N204        C205   1.358       .  A
N204       C1238   1.438       .  S
C205        C206   1.383       .  A
C205        C590   1.483       .  S
C206        C207   1.378       .  A
C206        H209   1.082       .  S
C207        C208   1.383       .  A
C207        H210   1.081       .  S
C208       C1266   1.494       .  S
N211        C215   1.356       .  A
N211        C212   1.355       .  A
N211       C1173   1.439       .  S
C212        C213   1.385       .  A
C212        C245   1.476       .  S
C213        C214   1.378       .  A
C213        H216   1.082       .  S
C214        C215   1.380       .  A
C214        H217   1.082       .  S
C215       C1313   1.479   1_565  S
N218        C222   1.367       .  A
N218        C219   1.361   1_554  A
N218       C1182   1.442       .  S
C219        C220   1.377   1_556  A
C219        C501   1.480       .  S
C220        C221   1.373       .  A
C220        H223   1.082       .  S
C221        C222   1.387       .  A
C221        H224   1.079   1_565  S
C222       C1210   1.505   1_565  S
N225        C229   1.347   1_565  A
N225        N226   1.324       .  A
N225       Cu233   2.090       .  S
N226        C227   1.351       .  A
N226       Cu232   2.104       .  S
C227        C228   1.389   1_565  A
C227        H230   1.081       .  S
C228        C229   1.386       .  A
C229        H231   1.082       .  S
Cu232       N235   2.104       .  S
Cu233       N243   2.089       .  S
Cu234       N236   2.079       .  S
Cu234       N242   2.080   1_554  S
N235        C239   1.348       .  A
N235        N236   1.322       .  A
N236        C237   1.349       .  A
C237        C238   1.385       .  A
C237        H240   1.080   1_554  S
C238        C239   1.390       .  A
C238        C295   1.482   1_554  S
C239        H241   1.082       .  S
N242        C246   1.344       .  A
N242        N243   1.322   1_556  A
N243        C244   1.349   1_554  A
C244        C245   1.387       .  A
C244        H247   1.082       .  S
C245        C246   1.384       .  A
C246        H248   1.082       .  S
N249        C253   1.344   1_545  A
N249        N250   1.319       .  A
N249       Cu257   2.072       .  S
N250        C251   1.346       .  A
N250       Cu256   2.069       .  S
C251        C252   1.384   1_545  A
C251        H254   1.070       .  S
C252        C253   1.386       .  A
C253        H255   1.082       .  S
Cu256       N259   2.069       .  S
Cu257       N267   2.073       .  S
Cu258       N260   2.103       .  S
Cu258       N266   2.104       .  S
N259        C263   1.344       .  A
N259        N260   1.323       .  A
N260        C261   1.350       .  A
C261        C262   1.389       .  A
C261        H264   1.081       .  S
C262        C263   1.380       .  A
C263        H265   1.082       .  S
N266        C270   1.350       .  A
N266        N267   1.322       .  A
N267        C268   1.344       .  A
C268        C269   1.383       .  A
C268        H271   1.080   1_545  S
C269        C270   1.393       .  A
C270        H272   1.082       .  S
N273        C277   1.359       .  A
N273        C274   1.359       .  A
N273       C1145   1.442       .  S
C274        C275   1.383       .  A
C274        C518   1.476       .  S
C275        C276   1.375       .  A
C275        H278   1.082       .  S
C276        C277   1.381       .  A
C276        H279   1.081       .  S
C277       C1117   1.484       .  S
N280        C284   1.363       .  A
N280        C281   1.356       .  A
N280       C1154   1.436       .  S
C281        C282   1.380       .  A
C281        C580   1.480       .  S
C282        C283   1.377       .  A
C282        H285   1.082       .  S
C283        C284   1.386       .  A
C283        H286   1.081       .  S
C284       C1089   1.499       .  S
N287        C291   1.357       .  A
N287        C288   1.357       .  A
N287       C1061   1.440       .  S
C288        C289   1.378       .  A
C288       C1126   1.474       .  S
C289        C290   1.373       .  A
C289        H292   1.082       .  S
C290        C291   1.385       .  A
C290        H293   1.082       .  S
C291        C373   1.476       .  S
N294        C298   1.365       .  A
N294        C295   1.360       .  A
N294       C1070   1.441       .  S
C295        C296   1.380       .  A
C296        C297   1.374       .  A
C296        H299   1.082       .  S
C297        C298   1.385       .  A
C297        H300   1.081       .  S
C298       C1042   1.496       .  S
N301        C305   1.363       .  A
N301        C302   1.362       .  A
N301       C1005   1.444       .  S
C302        C303   1.382       .  A
C302        C349   1.485   1_655  S
C303        C304   1.375       .  A
C303        H306   1.082       .  S
C304        C305   1.382       .  A
C304        H307   1.081       .  S
C305       C1098   1.489       .  S
N308        C312   1.361       .  A
N308        C309   1.359       .  A
N308       C1014   1.436       .  S
C309        C310   1.383       .  A
C309        C494   1.483       .  S
C310        C311   1.375       .  A
C310        H313   1.082       .  S
C311        C312   1.382       .  A
C311        H314   1.082       .  S
C312        C986   1.489       .  S
N315        C319   1.357       .  A
N315        C316   1.361       .  A
N315        C949   1.438       .  S
C316        C317   1.384       .  A
C316        C542   1.482       .  S
C317        C318   1.377       .  A
C317        H320   1.082       .  S
C318        C319   1.379       .  A
C318        H321   1.082       .  S
C319       C1033   1.482       .  S
N322        C326   1.359       .  A
N322        C323   1.358       .  A
N322        C958   1.438       .  S
C323        C324   1.382       .  A
C323        C669   1.477       .  S
C324        C325   1.373       .  A
C324        H327   1.082       .  S
C325        C326   1.381       .  A
C325        H328   1.082       .  S
C326        C977   1.484       .  S
N329        C333   1.344   1_556  A
N329        N330   1.324       .  A
N329       Cu337   2.096       .  S
N330        C331   1.354       .  A
N330       Cu336   2.095       .  S
C331        C332   1.388   1_556  A
C331        H334   1.082       .  S
C332        C333   1.387       .  A
C333        H335   1.082       .  S
Cu336       N339   2.096       .  S
Cu337       N347   2.096       .  S
Cu338       N340   2.095       .  S
Cu338       N346   2.095       .  S
N339        C343   1.345       .  A
N339        N340   1.324       .  A
N340        C341   1.352       .  A
C341        C342   1.388       .  A
C341        H344   1.082       .  S
C342        C343   1.387       .  A
C342        C399   1.483       .  S
C343        H345   1.082       .  S
N346        C350   1.346       .  A
N346        N347   1.322       .  A
N347        C348   1.351       .  A
C348        C349   1.391       .  A
C348        H351   1.081       .  S
C349        C350   1.389       .  A
C350        H352   1.082       .  S
N353        C357   1.344       .  A
N353        N354   1.325   1_556  A
N353       Cu361   2.090   1_556  S
N354        C355   1.351   1_554  A
N354       Cu360   2.095       .  S
C355        C356   1.386       .  A
C355        H358   1.082       .  S
C356        C357   1.385       .  A
C357        H359   1.082       .  S
Cu360       N363   2.096       .  S
Cu361       N371   2.088       .  S
Cu362       N364   2.078       .  S
Cu362       N370   2.077       .  S
N363        C367   1.348       .  A
N363        N364   1.321       .  A
N364        C365   1.346       .  A
C365        C366   1.386       .  A
C365        H368   1.078       .  S
C366        C367   1.392       .  A
C367        H369   1.082       .  S
N370        C374   1.342       .  A
N370        N371   1.321       .  A
N371        C372   1.351       .  A
C372        C373   1.388       .  A
C372        H375   1.082       .  S
C373        C374   1.386       .  A
C374        H376   1.082       .  S
N377        C381   1.360       .  A
N377        C378   1.359       .  A
N377        C921   1.436       .  S
C378        C379   1.385       .  A
C378        C525   1.483       .  S
C379        C380   1.376       .  A
C379        H382   1.082       .  S
C380        C381   1.380       .  A
C380        H383   1.082       .  S
C381        C902   1.485       .  S
N384        C388   1.359       .  A
N384        C385   1.358       .  A
N384        C930   1.444       .  S
C385        C386   1.381       .  A
C385        C532   1.473       .  S
C386        C387   1.374       .  A
C386        H389   1.082       .  S
C387        C388   1.383       .  A
C387        H390   1.082       .  S
C388        C874   1.481       .  S
N391        C395   1.356       .  A
N391        C392   1.360       .  A
N391        C837   1.437       .  S
C392        C393   1.382       .  A
C392        C893   1.485       .  S
C393        C394   1.375       .  A
C393        H396   1.082       .  S
C394        C395   1.382       .  A
C394        H397   1.082       .  S
C395        C477   1.476       .  S
N398        C402   1.362       .  A
N398        C399   1.361       .  A
N398        C846   1.441       .  S
C399        C400   1.383       .  A
C400        C401   1.374       .  A
C400        H403   1.082       .  S
C401        C402   1.380       .  A
C401        H404   1.082       .  S
C402        C809   1.485       .  S
N405        C409   1.359       .  A
N405        C406   1.360       .  A
N405        C790   1.440       .  S
C406        C407   1.383       .  A
C406        C453   1.483       .  S
C407        C408   1.376       .  A
C407        H410   1.082       .  S
C408        C409   1.382       .  A
C408        H411   1.082       .  S
C409        C865   1.486   1_655  S
N412        C416   1.359       .  A
N412        C413   1.357   1_455  A
N412        C781   1.438       .  S
C413        C414   1.382   1_655  A
C413        C484   1.480       .  S
C414        C415   1.376       .  A
C414        H417   1.082   1_455  S
C415        C416   1.383       .  A
C415        H418   1.081       .  S
C416        C753   1.487       .  S
N419        C423   1.360       .  A
N419        C420   1.358       .  A
N419        C725   1.442       .  S
C420        C421   1.382       .  A
C420        C645   1.477       .  S
C421        C422   1.375       .  A
C421        H424   1.082       .  S
C422        C423   1.382       .  A
C422        H425   1.082       .  S
C423        C762   1.485       .  S
N426        C430   1.358       .  A
N426        C427   1.361       .  A
N426        C734   1.441       .  S
C427        C428   1.383       .  A
C427        C566   1.479       .  S
C428        C429   1.372       .  A
C428        H431   1.082       .  S
C429        C430   1.381       .  A
C429        H432   1.082       .  S
C430        C818   1.480       .  S
N433        C437   1.345   1_655  A
N433        N434   1.322       .  A
N433       Cu441   2.088       .  S
N434        C435   1.349   1_655  A
N434       Cu440   2.085       .  S
C435        C436   1.386       .  A
C435        H438   1.082       .  S
C436        C437   1.387       .  A
C437        H439   1.082       .  S
Cu440       N443   2.086       .  S
Cu441       N451   2.086       .  S
Cu442       N444   2.095       .  S
Cu442       N450   2.096       .  S
N443        C447   1.346       .  A
N443        N444   1.323       .  A
N444        C445   1.349       .  A
C445        C446   1.388       .  A
C445        H448   1.082       .  S
C446        C447   1.385       .  A
C447        H449   1.082       .  S
N450        C454   1.347   1_545  A
N450        N451   1.323       .  A
N451        C452   1.349       .  A
C452        C453   1.385   1_545  A
C452        H455   1.082       .  S
C453        C454   1.389       .  A
C454        H456   1.082       .  S
N457        C461   1.345       .  A
N457        N458   1.322       .  A
N457       Cu465   2.095       .  S
N458        C459   1.348       .  A
N458       Cu464   2.083       .  S
C459        C460   1.386       .  A
C459        H462   1.080       .  S
C460        C461   1.390       .  A
C461        H463   1.082       .  S
Cu464       N467   2.083       .  S
Cu465       N475   2.095       .  S
Cu466       N468   2.074       .  S
Cu466       N474   2.074       .  S
N467        C471   1.346       .  A
N467        N468   1.321       .  A
N468        C469   1.345       .  A
C469        C470   1.383       .  A
C469        H472   1.082       .  S
C470        C471   1.387       .  A
C471        H473   1.082       .  S
N474        C478   1.343       .  A
N474        N475   1.322       .  A
N475        C476   1.351       .  A
C476        C477   1.389       .  A
C476        H479   1.082       .  S
C477        C478   1.384       .  A
C478        H480   1.082       .  S
N481        C485   1.344   1_565  A
N481        N482   1.321       .  A
N481       Cu489   2.081       .  S
N482        C483   1.351       .  A
N482       Cu488   2.093       .  S
C483        C484   1.391   1_565  A
C483        H486   1.082   1_655  S
C484        C485   1.385       .  A
C485        H487   1.082       .  S
Cu488       N491   2.093   1_655  S
Cu489       N499   2.083       .  S
Cu490       N492   2.098       .  S
Cu490       N498   2.097       .  S
N491        C495   1.344       .  A
N491        N492   1.324   1_455  A
N492        C493   1.352   1_655  A
C493        C494   1.389       .  A
C493        H496   1.081       .  S
C494        C495   1.385       .  A
C495        H497   1.082       .  S
N498        C502   1.348       .  A
N498        N499   1.321       .  A
N499        C500   1.347       .  A
C500        C501   1.387       .  A
C500        H503   1.080       .  S
C501        C502   1.391       .  A
C502        H504   1.082       .  S
N505        C509   1.347       .  A
N505        N506   1.322       .  A
N505       Cu513   2.100       .  S
N506        C507   1.346       .  A
N506       Cu512   2.080       .  S
C507        C508   1.386       .  A
C507        H510   1.079       .  S
C508        C509   1.392       .  A
C509        H511   1.082       .  S
Cu512       N515   2.080       .  S
Cu513       N523   2.100       .  S
Cu514       N516   2.076       .  S
Cu514       N522   2.076       .  S
N515        C519   1.345       .  A
N515        N516   1.320       .  A
N516        C517   1.347       .  A
C517        C518   1.386       .  A
C517        H520   1.079       .  S
C518        C519   1.388       .  A
C519        H521   1.082       .  S
N522        C526   1.343       .  A
N522        N523   1.322       .  A
N523        C524   1.350       .  A
C524        C525   1.388       .  A
C524        H527   1.076       .  S
C525        C526   1.384       .  A
C526        H528   1.082       .  S
N529        C533   1.347       .  A
N529        N530   1.322       .  A
N529       Cu537   2.087       .  S
N530        C531   1.346       .  A
N530       Cu536   2.087       .  S
C531        C532   1.386       .  A
C531        H534   1.082       .  S
C532        C533   1.388       .  A
C533        H535   1.082       .  S
Cu536       N539   2.088       .  S
Cu537       N547   2.086       .  S
Cu538       N540   2.093       .  S
Cu538       N546   2.092       .  S
N539        C543   1.349       .  A
N539        N540   1.322       .  A
N540        C541   1.347       .  A
C541        C542   1.389       .  A
C541        H544   1.082       .  S
C542        C543   1.387       .  A
C543        H545   1.078       .  S
N546        C550   1.348       .  A
N546        N547   1.323       .  A
N547        C548   1.346       .  A
C548        C549   1.386       .  A
C548        H551   1.082       .  S
C549        C550   1.386       .  A
C550        H552   1.081       .  S
N553        C557   1.348       .  A
N553        N554   1.321       .  A
N553       Cu561   2.089       .  S
N554        C555   1.346       .  A
N554       Cu560   2.078       .  S
C555        C556   1.386       .  A
C555        H558   1.082       .  S
C556        C557   1.388       .  A
C557        H559   1.079       .  S
Cu560       N563   2.077       .  S
Cu561       N571   2.089       .  S
Cu562       N564   2.096       .  S
Cu562       N570   2.096       .  S
N563        C567   1.347       .  A
N563        N564   1.322       .  A
N564        C565   1.346       .  A
C565        C566   1.390       .  A
C565        H568   1.082       .  S
C566        C567   1.385       .  A
C567        H569   1.081       .  S
N570        C574   1.351       .  A
N570        N571   1.323       .  A
N571        C572   1.345       .  A
C572        C573   1.386       .  A
C572        H575   1.082       .  S
C573        C574   1.388       .  A
C574        H576   1.082       .  S
N577        C581   1.351       .  A
N577        N578   1.323       .  A
N577       Cu585   2.099       .  S
N578        C579   1.346       .  A
N578       Cu584   2.085       .  S
C579        C580   1.385       .  A
C579        H582   1.082       .  S
C580        C581   1.388       .  A
C581        H583   1.082       .  S
Cu584       N587   2.085       .  S
Cu585       N595   2.100       .  S
Cu586       N588   2.100       .  S
Cu586       N594   2.100       .  S
N587        C591   1.351       .  A
N587        N588   1.323       .  A
N588        C589   1.346       .  A
C589        C590   1.388       .  A
C589        H592   1.082       .  S
C590        C591   1.387       .  A
C591        H593   1.081       .  S
N594        C598   1.352       .  A
N594        N595   1.323       .  A
N595        C596   1.347       .  A
C596        C597   1.389       .  A
C596        H599   1.082       .  S
C597        C598   1.390       .  A
C598        H600   1.082       .  S
N601        C605   1.345       .  A
N601        N602   1.320       .  A
N601       Cu609   2.085       .  S
N602        C603   1.347       .  A
N602       Cu608   2.080       .  S
C603        C604   1.389       .  A
C603        H606   1.082       .  S
C604        C605   1.387       .  A
C605        H607   1.082       .  S
Cu608       N611   2.079       .  S
Cu609       N619   2.085       .  S
Cu610       N612   2.089       .  S
Cu610       N618   2.091       .  S
N611        C615   1.345       .  A
N611        N612   1.322       .  A
N612        C613   1.347       .  A
C613        C614   1.386       .  A
C613        H616   1.082       .  S
C614        C615   1.383       .  A
C615        H617   1.082       .  S
N618        C622   1.347       .  A
N618        N619   1.322       .  A
N619        C620   1.348       .  A
C620        C621   1.386       .  A
C620        H623   1.082       .  S
C621        C622   1.388       .  A
C622        H624   1.082       .  S
N625        C629   1.349       .  A
N625        N626   1.323       .  A
N625       Cu633   2.087       .  S
N626        C627   1.344       .  A
N626       Cu632   2.089       .  S
C627        C628   1.386       .  A
C627        H630   1.082       .  S
C628        C629   1.386       .  A
C629        H631   1.082       .  S
Cu632       N635   2.089       .  S
Cu633       N643   2.088       .  S
Cu634       N636   2.086       .  S
Cu634       N642   2.085       .  S
N635        C639   1.351       .  A
N635        N636   1.321       .  A
N636        C637   1.345       .  A
C637        C638   1.387       .  A
C637        H640   1.082       .  S
C638        C639   1.390       .  A
C639        H641   1.078       .  S
N642        C646   1.348       .  A
N642        N643   1.322       .  A
N643        C644   1.346       .  A
C644        C645   1.387       .  A
C644        H647   1.082       .  S
C645        C646   1.385       .  A
C646        H648   1.082       .  S
N649        C653   1.342       .  A
N649        N650   1.321       .  A
N649       Cu657   2.073       .  S
N650        C651   1.349       .  A
N650       Cu656   2.095       .  S
C651        C652   1.393       .  A
C651        H654   1.082       .  S
C652        C653   1.382       .  A
C653        H655   1.080       .  S
Cu656       N659   2.094       .  S
Cu657       N667   2.072       .  S
Cu658       N660   2.077       .  S
Cu658       N666   2.076       .  S
N659        C663   1.350       .  A
N659        N660   1.324       .  A
N660        C661   1.342       .  A
C661        C662   1.382       .  A
C661        H664   1.082       .  S
C662        C663   1.387       .  A
C663        H665   1.081       .  S
N666        C670   1.346       .  A
N666        N667   1.318       .  A
N667        C668   1.344       .  A
C668        C669   1.388       .  A
C668        H671   1.082       .  S
C669        C670   1.388       .  A
C670        H672   1.080       .  S
N673        C677   1.350       .  A
N673        N674   1.323       .  A
N673       Cu681   2.093       .  S
N674        C675   1.345       .  A
N674       Cu680   2.089       .  S
C675        C676   1.385       .  A
C675        H678   1.082       .  S
C676        C677   1.388       .  A
C677        H679   1.081       .  S
Cu680       N683   2.088       .  S
Cu681       N691   2.093       .  S
Cu682       N684   2.076       .  S
Cu682       N690   2.074       .  S
N683        C687   1.351       .  A
N683        N684   1.321       .  A
N684        C685   1.343       .  A
C685        C686   1.385       .  A
C685        H688   1.082       .  S
C686        C687   1.388       .  A
C687        H689   1.081       .  S
N690        C694   1.346       .  A
N690        N691   1.322       .  A
N691        C692   1.347       .  A
C692        C693   1.389       .  A
C692        H695   1.082       .  S
C693        C694   1.384       .  A
C694        H696   1.078       .  S
N697        C701   1.347       .  A
N697        N698   1.321       .  A
N697       Cu705   2.083       .  S
N698        C699   1.345       .  A
N698       Cu704   2.081       .  S
C699        C700   1.385       .  A
C699        H702   1.082       .  S
C700        C701   1.387       .  A
C701        H703   1.081       .  S
Cu704       N707   2.081       .  S
Cu705       N715   2.082       .  S
Cu706       N708   2.094       .  S
Cu706       N714   2.093       .  S
N707        C711   1.348       .  A
N707        N708   1.323       .  A
N708        C709   1.347       .  A
C709        C710   1.387       .  A
C709        H712   1.082       .  S
C710        C711   1.385       .  A
C711        H713   1.082       .  S
N714        C718   1.350       .  A
N714        N715   1.323       .  A
N715        C716   1.344       .  A
C716        C717   1.385       .  A
C716        H719   1.082       .  S
C717        C718   1.387       .  A
C718        H720   1.082       .  S
C721        C722   1.406       .  A
C721        C726   1.403       .  A
C721        H731   1.083       .  S
C722        C723   1.417       .  A
C722        C727   1.496       .  S
C723        N728   1.430       .  S
C723        C724   1.403       .  A
C724        C725   1.401       .  A
C724        H729   1.084       .  S
C725        C726   1.407       .  A
C726        N730   1.427       .  S
C727        C732   1.417       .  A
C727        C736   1.405       .  A
N728        O743   1.262       .  A
N728        O744   1.262       .  A
N730        O741   1.262       .  A
N730        O742   1.262       .  A
C732        N737   1.428       .  S
C732        C733   1.404   1_455  A
C733        C734   1.397       .  A
C733        H738   1.083       .  S
C734        C735   1.410       .  A
C735        N739   1.428       .  S
C735        C736   1.401   1_655  A
C736        H740   1.084       .  S
N737        O747   1.262       .  A
N737        O748   1.261       .  A
N739        O745   1.262       .  A
N739        O746   1.262       .  A
C749        C750   1.401       .  A
C749        C754   1.401       .  A
C749        H759   1.085       .  S
C750        C751   1.409       .  A
C750        C755   1.481       .  S
C751        N756   1.428       .  S
C751        C752   1.401       .  A
C752        C753   1.404       .  A
C752        H757   1.083       .  S
C753        C754   1.414       .  A
C754        N758   1.430       .  S
C755        C760   1.409       .  A
C755        C764   1.400       .  A
N756        O771   1.262       .  A
N756        O772   1.262       .  A
N758        O769   1.261   1_455  A
N758        O770   1.262       .  A
C760        N765   1.427       .  S
C760        C761   1.402       .  A
C761        C762   1.403       .  A
C761        H766   1.083       .  S
C762        C763   1.413       .  A
C763        N767   1.429       .  S
C763        C764   1.399       .  A
C764        H768   1.085       .  S
N765        O775   1.260       .  A
N765        O776   1.262       .  A
N767        O773   1.262       .  A
N767        O774   1.262       .  A
C777        C778   1.404       .  A
C777        C782   1.399       .  A
C777        H787   1.084       .  S
C778        C779   1.418   1_645  A
C778        C783   1.494   1_545  S
C779        N784   1.428       .  S
C779        C780   1.403   1_565  A
C780        C781   1.397       .  A
C780        H785   1.084   1_545  S
C781        C782   1.407   1_455  A
C782        N786   1.427       .  S
C783        C788   1.417       .  A
C783        C792   1.406   1_655  A
N784        O799   1.262       .  A
N784        O800   1.260       .  A
N786        O797   1.261       .  A
N786        O798   1.262       .  A
C788        N793   1.430       .  S
C788        C789   1.400       .  A
C789        C790   1.399       .  A
C789        H794   1.084       .  S
C790        C791   1.407   1_655  A
C791        N795   1.428       .  S
C791        C792   1.403       .  A
C792        H796   1.082       .  S
N793        O803   1.262   1_565  A
N793        O804   1.262       .  A
N795        O801   1.262       .  A
N795        O802   1.262       .  A
C805        C806   1.399       .  A
C805        C810   1.404       .  A
C805        H815   1.084       .  S
C806        C807   1.407   1_455  A
C806        C811   1.480   1_455  S
C807        N812   1.430       .  S
C807        C808   1.401   1_655  A
C808        C809   1.405       .  A
C808        H813   1.084   1_455  S
C809        C810   1.413       .  A
C810        N814   1.428       .  S
C811        C816   1.404       .  A
C811        C820   1.403       .  A
N812        O827   1.262       .  A
N812        O828   1.262       .  A
N814        O825   1.261       .  A
N814        O826   1.262       .  A
C816        N821   1.425       .  S
C816        C817   1.396       .  A
C817        C818   1.401       .  A
C817        H822   1.085       .  S
C818        C819   1.413       .  A
C819        N823   1.429       .  S
C819        C820   1.404       .  A
C820        H824   1.084       .  S
N821        O831   1.261   1_655  A
N821        O832   1.262       .  A
N823        O829   1.262       .  A
N823        O830   1.262       .  A
C833        C834   1.409       .  A
C833        C838   1.407       .  A
C833        H843   1.083       .  S
C834        C835   1.417       .  A
C834        C839   1.499       .  S
C835        N840   1.426       .  S
C835        C836   1.399       .  A
C836        C837   1.393       .  A
C836        H841   1.084       .  S
C837        C838   1.407       .  A
C838        N842   1.428       .  S
C839        C844   1.416       .  A
C839        C848   1.407       .  A
N840        O855   1.262       .  A
N840        O856   1.260       .  A
N842        O853   1.261       .  A
N842        O854   1.262       .  A
C844        N849   1.429       .  S
C844        C845   1.405       .  A
C845        C846   1.401       .  A
C845        H850   1.084       .  S
C846        C847   1.406       .  A
C847        N851   1.428       .  S
C847        C848   1.402       .  A
C848        H852   1.083       .  S
N849        O859   1.262       .  A
N849        O860   1.262       .  A
N851        O857   1.262       .  A
N851        O858   1.262   1_455  A
C861        C862   1.399       .  A
C861        C866   1.398       .  A
C861        H871   1.085       .  S
C862        C863   1.410       .  A
C862        C867   1.482       .  S
C863        N868   1.427       .  S
C863        C864   1.406   1_455  A
C864        C865   1.405   1_655  A
C864        H869   1.083       .  S
C865        C866   1.412       .  A
C866        N870   1.428       .  S
C867        C872   1.410       .  A
C867        C876   1.404       .  A
N868        O883   1.260       .  A
N868        O884   1.262   1_455  A
N870        O881   1.262       .  A
N870        O882   1.262       .  A
C872        N877   1.428       .  S
C872        C873   1.400       .  A
C873        C874   1.401       .  A
C873        H878   1.084       .  S
C874        C875   1.411       .  A
C875        N879   1.431       .  S
C875        C876   1.404       .  A
C876        H880   1.084       .  S
N877        O887   1.262       .  A
N877        O888   1.261       .  A
N879        O885   1.262       .  A
N879        O886   1.262       .  A
C889        C890   1.404   1_655  A
C889        C894   1.402   1_655  A
C889        H899   1.084       .  S
C890        C891   1.411       .  A
C890        C895   1.490   1_455  S
C891        N896   1.428       .  S
C891        C892   1.403       .  A
C892        C893   1.404       .  A
C892        H897   1.084       .  S
C893        C894   1.411       .  A
C894        N898   1.428   1_455  S
C895        C900   1.414       .  A
C895        C904   1.405       .  A
N896        O911   1.261       .  A
N896        O912   1.262       .  A
N898        O909   1.262       .  A
N898        O910   1.262       .  A
C900        N905   1.428       .  S
C900        C901   1.401       .  A
C901        C902   1.397       .  A
C901        H906   1.083       .  S
C902        C903   1.411       .  A
C903        N907   1.428       .  S
C903        C904   1.403       .  A
C904        H908   1.085       .  S
N905        O915   1.262       .  A
N905        O916   1.262       .  A
N907        O913   1.262       .  A
N907        O914   1.262       .  A
C917        C918   1.400   1_655  A
C917        C922   1.399       .  A
C917        H927   1.085       .  S
C918        C919   1.405   1_455  A
C918        C923   1.473       .  S
C919        N924   1.428   1_655  S
C919        C920   1.398       .  A
C920        C921   1.403       .  A
C920        H925   1.084       .  S
C921        C922   1.413       .  A
C922        N926   1.430       .  S
C923        C928   1.406       .  A
C923        C932   1.395       .  A
N924        O939   1.261       .  A
N924        O940   1.262       .  A
N926        O937   1.261       .  A
N926        O938   1.260       .  A
C928        N933   1.428       .  S
C928        C929   1.400       .  A
C929        C930   1.403       .  A
C929        H934   1.083       .  S
C930        C931   1.417       .  A
C931        N935   1.428       .  S
C931        C932   1.400       .  A
C932        H936   1.084       .  S
N933        O943   1.262       .  A
N933        O944   1.262       .  A
N935        O941   1.262       .  A
N935        O942   1.261       .  A
C945        C946   1.399       .  A
C945        C950   1.399       .  A
C945        H955   1.084       .  S
C946        C947   1.405       .  A
C946        C951   1.474       .  S
C947        N952   1.429       .  S
C947        C948   1.402       .  A
C948        C949   1.406       .  A
C948        H953   1.083       .  S
C949        C950   1.410       .  A
C950        N954   1.428       .  S
C951        C956   1.408       .  A
C951        C960   1.398       .  A
N952        O967   1.262       .  A
N952        O968   1.262       .  A
N954        O965   1.261       .  A
N954        O966   1.261       .  A
C956        N961   1.429       .  S
C956        C957   1.401   1_556  A
C957        C958   1.400       .  A
C957        H962   1.082       .  S
C958        C959   1.411       .  A
C959        N963   1.428       .  S
C959        C960   1.399   1_554  A
C960        H964   1.085       .  S
N961        O971   1.262       .  A
N961        O972   1.262       .  A
N963        O969   1.262       .  A
N963        O970   1.262       .  A
C973        C974   1.404       .  A
C973        C978   1.406       .  A
C973        H983   1.084       .  S
C974        C975   1.409       .  A
C974        C979   1.487   1_554  S
C975        N980   1.427       .  S
C975        C976   1.397       .  A
C976        C977   1.401       .  A
C976        H981   1.085       .  S
C977        C978   1.414       .  A
C978        N982   1.428       .  S
C979        C984   1.411   1_556  A
C979        C988   1.400       .  A
N980        O995   1.261   1_554  A
N980        O996   1.262       .  A
N982        O993   1.262       .  A
N982        O994   1.262       .  A
C984        N989   1.429       .  S
C984        C985   1.402   1_554  A
C985        C986   1.405       .  A
C985        H990   1.084       .  S
C986        C987   1.415       .  A
C987        N991   1.428       .  S
C987        C988   1.402       .  A
C988        H992   1.084       .  S
N989        O999   1.262       .  A
N989       O1000   1.262       .  A
N991        O997   1.262       .  A
N991        O998   1.262       .  A
C1001      C1002   1.400   1_655  A
C1001      C1006   1.398       .  A
C1001      H1011   1.083       .  S
C1002      C1003   1.415       .  A
C1002      C1007   1.492       .  S
C1003      N1008   1.427       .  S
C1003      C1004   1.407       .  A
C1004      C1005   1.402   1_455  A
C1004      H1009   1.081       .  S
C1005      C1006   1.411       .  A
C1006      N1010   1.427       .  S
C1007      C1012   1.416       .  A
C1007      C1016   1.408       .  A
N1008      O1023   1.262   1_556  A
N1008      O1024   1.261       .  A
N1010      O1021   1.262       .  A
N1010      O1022   1.262       .  A
C1012      N1017   1.429       .  S
C1012      C1013   1.398       .  A
C1013      C1014   1.396       .  A
C1013      H1018   1.084       .  S
C1014      C1015   1.406       .  A
C1015      N1019   1.429       .  S
C1015      C1016   1.406       .  A
C1016      H1020   1.083       .  S
N1017      O1027   1.262       .  A
N1017      O1028   1.262       .  A
N1019      O1025   1.262       .  A
N1019      O1026   1.261   1_556  A
C1029      C1030   1.406       .  A
C1029      C1034   1.405       .  A
C1029      H1039   1.083       .  S
C1030      C1031   1.415       .  A
C1030      C1035   1.494       .  S
C1031      N1036   1.429       .  S
C1031      C1032   1.400       .  A
C1032      C1033   1.397       .  A
C1032      H1037   1.081       .  S
C1033      C1034   1.409       .  A
C1034      N1038   1.428       .  S
C1035      C1040   1.413       .  A
C1035      C1044   1.402       .  A
N1036      O1051   1.262       .  A
N1036      O1052   1.262       .  A
N1038      O1049   1.262       .  A
N1038      O1050   1.262       .  A
C1040      N1045   1.428       .  S
C1040      C1041   1.405       .  A
C1041      C1042   1.405       .  A
C1041      H1046   1.083       .  S
C1042      C1043   1.416       .  A
C1043      N1047   1.430       .  S
C1043      C1044   1.400       .  A
C1044      H1048   1.085       .  S
N1045      O1055   1.262       .  A
N1045      O1056   1.262       .  A
N1047      O1053   1.262       .  A
N1047      O1054   1.262       .  A
C1057      C1058   1.411       .  A
C1057      C1062   1.405       .  A
C1057      H1067   1.081       .  S
C1058      C1059   1.420   1_554  A
C1058      C1063   1.507       .  S
C1059      N1064   1.428       .  S
C1059      C1060   1.405       .  A
C1060      C1061   1.396   1_556  A
C1060      H1065   1.083       .  S
C1061      C1062   1.405       .  A
C1062      N1066   1.429       .  S
C1063      C1068   1.419       .  A
C1063      C1072   1.413   1_554  A
N1064      O1079   1.262       .  A
N1064      O1080   1.262       .  A
N1066      O1077   1.261       .  A
N1066      O1078   1.262       .  A
C1068      N1073   1.428       .  S
C1068      C1069   1.403       .  A
C1069      C1070   1.399   1_554  A
C1069      H1074   1.083       .  S
C1070      C1071   1.404       .  A
C1071      N1075   1.429       .  S
C1071      C1072   1.407       .  A
C1072      H1076   1.082       .  S
N1073      O1083   1.262       .  A
N1073      O1084   1.262       .  A
N1075      O1081   1.262       .  A
N1075      O1082   1.262       .  A
C1085      C1086   1.400       .  A
C1085      C1090   1.401       .  A
C1085      H1095   1.084       .  S
C1086      C1087   1.413       .  A
C1086      C1091   1.493       .  S
C1087      N1092   1.428   1_554  S
C1087      C1088   1.407       .  A
C1088      C1089   1.406       .  A
C1088      H1093   1.082       .  S
C1089      C1090   1.418       .  A
C1090      N1094   1.429       .  S
C1091      C1096   1.415       .  A
C1091      C1100   1.403   1_554  A
N1092      O1107   1.262       .  A
N1092      O1108   1.261       .  A
N1094      O1105   1.262       .  A
N1094      O1106   1.262       .  A
C1096      N1101   1.429       .  S
C1096      C1097   1.402       .  A
C1097      C1098   1.401   1_554  A
C1097      H1102   1.084       .  S
C1098      C1099   1.415       .  A
C1099      N1103   1.430       .  S
C1099      C1100   1.405       .  A
C1100      H1104   1.084       .  S
N1101      O1111   1.262       .  A
N1101      O1112   1.261       .  A
N1103      O1109   1.262       .  A
N1103      O1110   1.262       .  A
C1113      C1114   1.400       .  A
C1113      C1118   1.402       .  A
C1113      H1123   1.084       .  S
C1114      C1115   1.408       .  A
C1114      C1119   1.475       .  S
C1115      N1120   1.428       .  S
C1115      C1116   1.396       .  A
C1116      C1117   1.400       .  A
C1116      H1121   1.078       .  S
C1117      C1118   1.413       .  A
C1118      N1122   1.428       .  S
C1119      C1124   1.407   1_556  A
C1119      C1128   1.400       .  A
N1120      O1135   1.262       .  A
N1120      O1136   1.261       .  A
N1122      O1133   1.262       .  A
N1122      O1134   1.262       .  A
C1124      N1129   1.428       .  S
C1124      C1125   1.401       .  A
C1125      C1126   1.402       .  A
C1125      H1130   1.083       .  S
C1126      C1127   1.409   1_554  A
C1127      N1131   1.428       .  S
C1127      C1128   1.398       .  A
C1128      H1132   1.085       .  S
N1129      O1139   1.262       .  A
N1129      O1140   1.261       .  A
N1131      O1137   1.261       .  A
N1131      O1138   1.262       .  A
C1141      C1142   1.403       .  A
C1141      C1146   1.402       .  A
C1141      H1151   1.084       .  S
C1142      C1143   1.411       .  A
C1142      C1147   1.487   1_556  S
C1143      N1148   1.429       .  S
C1143      C1144   1.400       .  A
C1144      C1145   1.403       .  A
C1144      H1149   1.084       .  S
C1145      C1146   1.412       .  A
C1146      N1150   1.429       .  S
C1147      C1152   1.414       .  A
C1147      C1156   1.402       .  A
N1148      O1163   1.262       .  A
N1148      O1164   1.262   1_556  A
N1150      O1161   1.262       .  A
N1150      O1162   1.261       .  A
C1152      N1157   1.426       .  S
C1152      C1153   1.401       .  A
C1153      C1154   1.396       .  A
C1153      H1158   1.084       .  S
C1154      C1155   1.409       .  A
C1155      N1159   1.428       .  S
C1155      C1156   1.400       .  A
C1156      H1160   1.084       .  S
N1157      O1167   1.262       .  A
N1157      O1168   1.261       .  A
N1159      O1165   1.262       .  A
N1159      O1166   1.262       .  A
C1169      C1170   1.405       .  A
C1169      C1174   1.404       .  A
C1169      H1179   1.084       .  S
C1170      C1171   1.418       .  A
C1170      C1175   1.493       .  S
C1171      N1176   1.429   1_565  S
C1171      C1172   1.397       .  A
C1172      C1173   1.396       .  A
C1172      H1177   1.083   1_565  S
C1173      C1174   1.409       .  A
C1174      N1178   1.428       .  S
C1175      C1180   1.415   1_556  A
C1175      C1184   1.403       .  A
N1176      O1191   1.261   1_556  A
N1176      O1192   1.262       .  A
N1178      O1189   1.262       .  A
N1178      O1190   1.262       .  A
C1180      N1185   1.428       .  S
C1180      C1181   1.405       .  A
C1181      C1182   1.402       .  A
C1181      H1186   1.084       .  S
C1182      C1183   1.411   1_554  A
C1183      N1187   1.429   1_565  S
C1183      C1184   1.398       .  A
C1184      H1188   1.083   1_565  S
N1185      O1195   1.262       .  A
N1185      O1196   1.262       .  A
N1187      O1193   1.262       .  A
N1187      O1194   1.262       .  A
C1197      C1198   1.399       .  A
C1197      C1202   1.399       .  A
C1197      H1207   1.083       .  S
C1198      C1199   1.414       .  A
C1198      C1203   1.495       .  S
C1199      N1204   1.433   1_545  S
C1199      C1200   1.409       .  A
C1200      C1201   1.410       .  A
C1200      H1205   1.080       .  S
C1201      C1202   1.420       .  A
C1202      N1206   1.429       .  S
C1203      C1208   1.412       .  A
C1203      C1212   1.401       .  A
N1204      O1219   1.262       .  A
N1204      O1220   1.263       .  A
N1206      O1217   1.262       .  A
N1206      O1218   1.262       .  A
C1208      N1213   1.429       .  S
C1208      C1209   1.403       .  A
C1209      C1210   1.408       .  A
C1209      H1214   1.079       .  S
C1210      C1211   1.422   1_545  A
C1211      N1215   1.430       .  S
C1211      C1212   1.400   1_565  A
C1212      H1216   1.084       .  S
N1213      O1223   1.262       .  A
N1213      O1224   1.262       .  A
N1215      O1221   1.262       .  A
N1215      O1222   1.263       .  A
C1225      C1226   1.402       .  A
C1225      C1230   1.396       .  A
C1225      H1235   1.084       .  S
C1226      C1227   1.413       .  A
C1226      C1231   1.485   1_545  S
C1227      N1232   1.427       .  S
C1227      C1228   1.406       .  A
C1228      C1229   1.401       .  A
C1228      H1233   1.084       .  S
C1229      C1230   1.408       .  A
C1230      N1234   1.428       .  S
C1231      C1236   1.414       .  A
C1231      C1240   1.402       .  A
N1232      O1247   1.262       .  A
N1232      O1248   1.261       .  A
N1234      O1245   1.262       .  A
N1234      O1246   1.262       .  A
C1236      N1241   1.429       .  S
C1236      C1237   1.401       .  A
C1237      C1238   1.398       .  A
C1237      H1242   1.084       .  S
C1238      C1239   1.407       .  A
C1239      N1243   1.427       .  S
C1239      C1240   1.402       .  A
C1240      H1244   1.084       .  S
N1241      O1251   1.262       .  A
N1241      O1252   1.262       .  A
N1243      O1249   1.262       .  A
N1243      O1250   1.261       .  A
C1253      C1254   1.404       .  A
C1253      C1258   1.401       .  A
C1253      H1263   1.083       .  S
C1254      C1255   1.416   1_565  A
C1254      C1259   1.497       .  S
C1255      N1260   1.428       .  S
C1255      C1256   1.408       .  A
C1256      C1257   1.402       .  A
C1256      H1261   1.084       .  S
C1257      C1258   1.410   1_545  A
C1258      N1262   1.429       .  S
C1259      C1264   1.415       .  A
C1259      C1268   1.404       .  A
N1260      O1275   1.262       .  A
N1260      O1276   1.262       .  A
N1262      O1273   1.262       .  A
N1262      O1274   1.262       .  A
C1264      N1269   1.429       .  S
C1264      C1265   1.403       .  A
C1265      C1266   1.402       .  A
C1265      H1270   1.082       .  S
C1266      C1267   1.415       .  A
C1267      N1271   1.429       .  S
C1267      C1268   1.406       .  A
C1268      H1272   1.084       .  S
N1269      O1279   1.262       .  A
N1269      O1280   1.261       .  A
N1271      O1277   1.262       .  A
N1271      O1278   1.261       .  A
C1281      C1282   1.400       .  A
C1281      C1286   1.397       .  A
C1281      H1291   1.084       .  S
C1282      C1283   1.412       .  A
C1282      C1287   1.483       .  S
C1283      N1288   1.428       .  S
C1283      C1284   1.404       .  A
C1284      C1285   1.403       .  A
C1284      H1289   1.084       .  S
C1285      C1286   1.413       .  A
C1286      N1290   1.431   1_545  S
C1287      C1292   1.416       .  A
C1287      C1296   1.402       .  A
N1288      O1303   1.262       .  A
N1288      O1304   1.262       .  A
N1290      O1301   1.261       .  A
N1290      O1302   1.262       .  A
C1292      N1297   1.428   1_545  S
C1292      C1293   1.396       .  A
C1293      C1294   1.395       .  A
C1293      H1298   1.084       .  S
C1294      C1295   1.409       .  A
C1295      N1299   1.428       .  S
C1295      C1296   1.401       .  A
C1296      H1300   1.084       .  S
N1297      O1307   1.262       .  A
N1297      O1308   1.262       .  A
N1299      O1305   1.262       .  A
N1299      O1306   1.262       .  A
C1309      C1310   1.401       .  A
C1309      C1314   1.400       .  A
C1309      H1319   1.084       .  S
C1310      C1311   1.409       .  A
C1310      C1315   1.481       .  S
C1311      N1316   1.428   1_545  S
C1311      C1312   1.403   1_545  A
C1312      C1313   1.402   1_565  A
C1312      H1317   1.084       .  S
C1313      C1314   1.410       .  A
C1314      N1318   1.429       .  S
C1315      C1320   1.407       .  A
C1315      C1324   1.400       .  A
N1316      O1331   1.262       .  A
N1316      O1332   1.262       .  A
N1318      O1329   1.262       .  A
N1318      O1330   1.262       .  A
C1320      N1325   1.429       .  S
C1320      C1321   1.402       .  A
C1321      C1322   1.406       .  A
C1321      H1326   1.082       .  S
C1322      C1323   1.415       .  A
C1323      N1327   1.429       .  S
C1323      C1324   1.404       .  A
C1324      H1328   1.084       .  S
N1325      O1335   1.262       .  A
N1325      O1336   1.262       .  A
N1327      O1333   1.261       .  A
N1327      O1334   1.262       .  A
C1337      C1338   1.401       .  A
C1337      C1342   1.404       .  A
C1337      H1347   1.083       .  S
C1338      C1339   1.410       .  A
C1338      C1343   1.495       .  S
C1339      N1344   1.429       .  S
C1339      C1340   1.400       .  A
C1340      C1341   1.410       .  A
C1340      H1345   1.083       .  S
C1341      C1342   1.418       .  A
C1342      N1346   1.424       .  S
C1343      C1348   1.411       .  A
C1343      C1352   1.404       .  A
N1344      O1359   1.262       .  A
N1344      O1360   1.262       .  A
N1346      O1357   1.261       .  A
N1346      O1358   1.261       .  A
C1348      N1353   1.430       .  S
C1348      C1349   1.396       .  A
C1349      C1350   1.407       .  A
C1349      H1354   1.084       .  S
C1350      C1351   1.419       .  A
C1351      N1355   1.425       .  S
C1351      C1352   1.407       .  A
C1352      H1356   1.084       .  S
N1353      O1363   1.262       .  A
N1353      O1364   1.262       .  A
N1355      O1361   1.261       .  A
N1355      O1362   1.262       .  A
C1365      C1366   1.399       .  A
C1365      C1370   1.403       .  A
C1365      H1375   1.084       .  S
C1366      C1367   1.405       .  A
C1366      C1371   1.473   1_565  S
C1367      N1372   1.429       .  S
C1367      C1368   1.403       .  A
C1368      C1369   1.404       .  A
C1368      H1373   1.083       .  S
C1369      C1370   1.417       .  A
C1370      N1374   1.440       .  S
C1371      C1376   1.410       .  A
C1371      C1380   1.397       .  A
N1372      O1387   1.262       .  A
N1372      O1388   1.262   1_565  A
N1374      O1385   1.263       .  A
N1374      O1386   1.262       .  A
C1376      N1381   1.427       .  S
C1376      C1377   1.399       .  A
C1377      C1378   1.399       .  A
C1377      H1382   1.083       .  S
C1378      C1379   1.408       .  A
C1379      N1383   1.426       .  S
C1379      C1380   1.396       .  A
C1380      H1384   1.085       .  S
N1381      O1391   1.262       .  A
N1381      O1392   1.262       .  A
N1383      O1389   1.261       .  A
N1383      O1390   1.261       .  A
C1393      C1394   1.405       .  A
C1393      C1398   1.401       .  A
C1393      H1403   1.084       .  S
C1394      C1395   1.416       .  A
C1394      C1399   1.491       .  S
C1395      N1400   1.427       .  S
C1395      C1396   1.397       .  A
C1396      C1397   1.394       .  A
C1396      H1401   1.083       .  S
C1397      C1398   1.409       .  A
C1398      N1402   1.428       .  S
C1399      C1404   1.415       .  A
C1399      C1408   1.404       .  A
N1400      O1415   1.262       .  A
N1400      O1416   1.261       .  A
N1402      O1413   1.262       .  A
N1402      O1414   1.262       .  A
C1404      N1409   1.430       .  S
C1404      C1405   1.400       .  A
C1405      C1406   1.401       .  A
C1405      H1410   1.084       .  S
C1406      C1407   1.408       .  A
C1407      N1411   1.427       .  S
C1407      C1408   1.401       .  A
C1408      H1412   1.082       .  S
N1409      O1419   1.262       .  A
N1409      O1420   1.262       .  A
N1411      O1417   1.261       .  A
N1411      O1418   1.262       .  A
C1421      C1422   1.400       .  A
C1421      C1426   1.397       .  A
C1421      H1431   1.084       .  S
C1422      C1423   1.412       .  A
C1422      C1427   1.484       .  S
C1423      N1428   1.427       .  S
C1423      C1424   1.404       .  A
C1424      C1425   1.403       .  A
C1424      H1429   1.084       .  S
C1425      C1426   1.412       .  A
C1426      N1430   1.429       .  S
C1427      C1432   1.410       .  A
C1427      C1436   1.403       .  A
N1428      O1443   1.260       .  A
N1428      O1444   1.261       .  A
N1430      O1441   1.262       .  A
N1430      O1442   1.262       .  A
C1432      N1437   1.429       .  S
C1432      C1433   1.397       .  A
C1433      C1434   1.403       .  A
C1433      H1438   1.082       .  S
C1434      C1435   1.414       .  A
C1435      N1439   1.429       .  S
C1435      C1436   1.402       .  A
C1436      H1440   1.084       .  S
N1437      O1447   1.262       .  A
N1437      O1448   1.262       .  A
N1439      O1445   1.262       .  A
N1439      O1446   1.262       .  A
C1449      C1450   1.403       .  A
C1449      C1454   1.410       .  A
C1449      H1459   1.084       .  S
C1450      C1451   1.405       .  A
C1450      C1455   1.478       .  S
C1451      N1456   1.428       .  S
C1451      C1452   1.395       .  A
C1452      C1453   1.400       .  A
C1452      H1457   1.084       .  S
C1453      C1454   1.419       .  A
C1454      N1458   1.444       .  S
C1455      C1460   1.410       .  A
C1455      C1464   1.399       .  A
N1456      O1471   1.262       .  A
N1456      O1472   1.261       .  A
N1458      O1469   1.263       .  A
N1458      O1470   1.262       .  A
C1460      N1465   1.428       .  S
C1460      C1461   1.401       .  A
C1461      C1462   1.401       .  A
C1461      H1466   1.083       .  S
C1462      C1463   1.409       .  A
C1463      N1467   1.427       .  S
C1463      C1464   1.398       .  A
C1464      H1468   1.085       .  S
N1465      O1475   1.262       .  A
N1465      O1476   1.262       .  A
N1467      O1473   1.261       .  A
N1467      O1474   1.262       .  A
C1477      C1478   1.399       .  A
C1477      C1482   1.400       .  A
C1477      H1487   1.084       .  S
C1478      C1479   1.411       .  A
C1478      C1483   1.485       .  S
C1479      N1484   1.428       .  S
C1479      C1480   1.404       .  A
C1480      C1481   1.404       .  A
C1480      H1485   1.083       .  S
C1481      C1482   1.416       .  A
C1482      N1486   1.429       .  S
C1483      C1488   1.411       .  A
C1483      C1492   1.405       .  A
N1484      O1499   1.262       .  A
N1484      O1500   1.262       .  A
N1486      O1497   1.262       .  A
N1486      O1498   1.262       .  A
C1488      N1493   1.429       .  S
C1488      C1489   1.399       .  A
C1489      C1490   1.401       .  A
C1489      H1494   1.083       .  S
C1490      C1491   1.411       .  A
C1491      N1495   1.431       .  S
C1491      C1492   1.405       .  A
C1492      H1496   1.083       .  S
N1493      O1503   1.262       .  A
N1493      O1504   1.262       .  A
N1495      O1501   1.262       .  A
N1495      O1502   1.262       .  A
C1505      C1506   1.407       .  A
C1505      C1510   1.405       .  A
C1505      H1515   1.083       .  S
C1506      C1507   1.413       .  A
C1506      C1511   1.495       .  S
C1507      N1512   1.428   1_455  S
C1507      C1508   1.400   1_455  A
C1508      C1509   1.401   1_655  A
C1508      H1513   1.084       .  S
C1509      C1510   1.411       .  A
C1510      N1514   1.429       .  S
C1511      C1516   1.416       .  A
C1511      C1520   1.405       .  A
N1512      O1527   1.262       .  A
N1512      O1528   1.262       .  A
N1514      O1525   1.261       .  A
N1514      O1526   1.261       .  A
C1516      N1521   1.429       .  S
C1516      C1517   1.404       .  A
C1517      C1518   1.399       .  A
C1517      H1522   1.084       .  S
C1518      C1519   1.409       .  A
C1519      N1523   1.428       .  S
C1519      C1520   1.401       .  A
C1520      H1524   1.083       .  S
N1521      O1531   1.262       .  A
N1521      O1532   1.262   1_455  A
N1523      O1529   1.262       .  A
N1523      O1530   1.262       .  A
C1533      C1534   1.407       .  A
C1533      C1538   1.399       .  A
C1533      H1543   1.084       .  S
C1534      C1535   1.413       .  A
C1534      C1539   1.488       .  S
C1535      N1540   1.429       .  S
C1535      C1536   1.402       .  A
C1536      C1537   1.401       .  A
C1536      H1541   1.084       .  S
C1537      C1538   1.403       .  A
C1538      N1542   1.427       .  S
C1539      C1544   1.414       .  A
C1539      C1548   1.404       .  A
N1540      O1555   1.262       .  A
N1540      O1556   1.262       .  A
N1542      O1553   1.261       .  A
N1542      O1554   1.262       .  A
C1544      N1549   1.429       .  S
C1544      C1545   1.401       .  A
C1545      C1546   1.398       .  A
C1545      H1550   1.080       .  S
C1546      C1547   1.410       .  A
C1547      N1551   1.429       .  S
C1547      C1548   1.400       .  A
C1548      H1552   1.084       .  S
N1549      O1559   1.262       .  A
N1549      O1560   1.262       .  A
N1551      O1557   1.262       .  A
N1551      O1558   1.262       .  A
C1561      C1562   1.402       .  A
C1561      C1566   1.404       .  A
C1561      H1571   1.085       .  S
C1562      C1563   1.408       .  A
C1562      C1567   1.484       .  S
C1563      N1568   1.428       .  S
C1563      C1564   1.400       .  A
C1564      C1565   1.403       .  A
C1564      H1569   1.081       .  S
C1565      C1566   1.414       .  A
C1566      N1570   1.429       .  S
C1567      C1572   1.410       .  A
C1567      C1576   1.402       .  A
N1568      O1583   1.262       .  A
N1568      O1584   1.262       .  A
N1570      O1581   1.262       .  A
N1570      O1582   1.262       .  A
C1572      N1577   1.428       .  S
C1572      C1573   1.403       .  A
C1573      C1574   1.402       .  A
C1573      H1578   1.084       .  S
C1574      C1575   1.411       .  A
C1575      N1579   1.429       .  S
C1575      C1576   1.401       .  A
C1576      H1580   1.084       .  S
N1577      O1587   1.262       .  A
N1577      O1588   1.262       .  A
N1579      O1585   1.262       .  A
N1579      O1586   1.262       .  A
C1589      C1590   1.404       .  A
C1589      C1594   1.405       .  A
C1589      H1599   1.084       .  S
C1590      C1591   1.413       .  A
C1590      C1595   1.487       .  S
C1591      N1596   1.429       .  S
C1591      C1592   1.397       .  A
C1592      C1593   1.398       .  A
C1592      H1597   1.084       .  S
C1593      C1594   1.411       .  A
C1594      N1598   1.428       .  S
C1595      C1600   1.411       .  A
C1595      C1604   1.402       .  A
N1596      O1611   1.262       .  A
N1596      O1612   1.262       .  A
N1598      O1609   1.262       .  A
N1598      O1610   1.262       .  A
C1600      N1605   1.428       .  S
C1600      C1601   1.403       .  A
C1601      C1602   1.403       .  A
C1601      H1606   1.082       .  S
C1602      C1603   1.412       .  A
C1603      N1607   1.428       .  S
C1603      C1604   1.399       .  A
C1604      H1608   1.084       .  S
N1605      O1615   1.262       .  A
N1605      O1616   1.262       .  A
N1607      O1613   1.261       .  A
N1607      O1614   1.261       .  A
C1617      C1618   1.401       .  A
C1617      C1622   1.399       .  A
C1617      H1627   1.084       .  S
C1618      C1619   1.411   1_545  A
C1618      C1623   1.481   1_545  S
C1619      N1624   1.428       .  S
C1619      C1620   1.402   1_565  A
C1620      C1621   1.400       .  A
C1620      H1625   1.083       .  S
C1621      C1622   1.408       .  A
C1622      N1626   1.428       .  S
C1623      C1628   1.408       .  A
C1623      C1632   1.403       .  A
N1624      O1639   1.262       .  A
N1624      O1640   1.262       .  A
N1626      O1637   1.262       .  A
N1626      O1638   1.262       .  A
C1628      N1633   1.428       .  S
C1628      C1629   1.398       .  A
C1629      C1630   1.401       .  A
C1629      H1634   1.084       .  S
C1630      C1631   1.416       .  A
C1631      N1635   1.432       .  S
C1631      C1632   1.403       .  A
C1632      H1636   1.084   1_565  S
N1633      O1643   1.262       .  A
N1633      O1644   1.262       .  A
N1635      O1641   1.261   1_565  A
N1635      O1642   1.261       .  A
C1645      C1646   1.402       .  A
C1645      C1650   1.406       .  A
C1645      H1655   1.085       .  S
C1646      C1647   1.409       .  A
C1646      C1651   1.487       .  S
C1647      N1652   1.428       .  S
C1647      C1648   1.400       .  A
C1648      C1649   1.404       .  A
C1648      H1653   1.081       .  S
C1649      C1650   1.417       .  A
C1650      N1654   1.429       .  S
C1651      C1656   1.412       .  A
C1651      C1660   1.402       .  A
N1652      O1667   1.262       .  A
N1652      O1668   1.262       .  A
N1654      O1665   1.261       .  A
N1654      O1666   1.262       .  A
C1656      N1661   1.428       .  S
C1656      C1657   1.405       .  A
C1657      C1658   1.402       .  A
C1657      H1662   1.084       .  S
C1658      C1659   1.411       .  A
C1659      N1663   1.429       .  S
C1659      C1660   1.401       .  A
C1660      H1664   1.084       .  S
N1661      O1671   1.262       .  A
N1661      O1672   1.262       .  A
N1663      O1669   1.262       .  A
N1663      O1670   1.262       .  A
C1673      C1674   1.402       .  A
C1673      C1678   1.403       .  A
C1673      H1683   1.084       .  S
C1674      C1675   1.416       .  A
C1674      C1679   1.485       .  S
C1675      N1680   1.428       .  S
C1675      C1676   1.395       .  A
C1676      C1677   1.396       .  A
C1676      H1681   1.084       .  S
C1677      C1678   1.410       .  A
C1678      N1682   1.427       .  S
C1679      C1684   1.413       .  A
C1679      C1688   1.402       .  A
N1680      O1695   1.262       .  A
N1680      O1696   1.262       .  A
N1682      O1693   1.262       .  A
N1682      O1694   1.262       .  A
C1684      N1689   1.428       .  S
C1684      C1685   1.405       .  A
C1685      C1686   1.402       .  A
C1685      H1690   1.084       .  S
C1686      C1687   1.411       .  A
C1687      N1691   1.429       .  S
C1687      C1688   1.398       .  A
C1688      H1692   1.084       .  S
N1689      O1699   1.262       .  A
N1689      O1700   1.261       .  A
N1691      O1697   1.261       .  A
N1691      O1698   1.261       .  A
C1701      C1702   1.403       .  A
C1701      C1706   1.397       .  A
C1701      H1711   1.084       .  S
C1702      C1703   1.411       .  A
C1702      C1707   1.481       .  S
C1703      N1708   1.429       .  S
C1703      C1704   1.404       .  A
C1704      C1705   1.402       .  A
C1704      H1709   1.084       .  S
C1705      C1706   1.406       .  A
C1706      N1710   1.431       .  S
C1707      C1712   1.408       .  A
C1707      C1716   1.402       .  A
N1708      O1723   1.262       .  A
N1708      O1724   1.262       .  A
N1710      O1721   1.262       .  A
N1710      O1722   1.262       .  A
C1712      N1717   1.428       .  S
C1712      C1713   1.389       .  A
C1713      C1714   1.391       .  A
C1713      H1718   1.132       .  S
C1714      C1715   1.415       .  A
C1715      N1719   1.429       .  S
C1715      C1716   1.403       .  A
C1716      H1720   1.091       .  S
N1717      O1727   1.262       .  A
N1717      O1728   1.262       .  A
N1719      O1725   1.262       .  A
N1719      O1726   1.262       .  A
C1729      C1730   1.402       .  A
C1729      C1734   1.397       .  A
C1729      H1739   1.084       .  S
C1730      C1731   1.415       .  A
C1730      C1735   1.487       .  S
C1731      N1736   1.429       .  S
C1731      C1732   1.403       .  A
C1732      C1733   1.401       .  A
C1732      H1737   1.083       .  S
C1733      C1734   1.408       .  A
C1734      N1738   1.427       .  S
C1735      C1740   1.414       .  A
C1735      C1744   1.405       .  A
N1736      O1751   1.262       .  A
N1736      O1752   1.261       .  A
N1738      O1749   1.262       .  A
N1738      O1750   1.262       .  A
C1740      N1745   1.429       .  S
C1740      C1741   1.397       .  A
C1741      C1742   1.398       .  A
C1741      H1746   1.084       .  S
C1742      C1743   1.408       .  A
C1743      N1747   1.427       .  S
C1743      C1744   1.402       .  A
C1744      H1748   1.083       .  S
N1745      O1755   1.262       .  A
N1745      O1756   1.262       .  A
N1747      O1753   1.262       .  A
N1747      O1754   1.262       .  A
C1757      C1758   1.403       .  A
C1757      C1762   1.404       .  A
C1757      H1767   1.082       .  S
C1758      C1759   1.417       .  A
C1758      C1763   1.502       .  S
C1759      N1764   1.430       .  S
C1759      C1760   1.399       .  A
C1760      C1761   1.406       .  A
C1760      H1765   1.084       .  S
C1761      C1762   1.414       .  A
C1762      N1766   1.423       .  S
C1763      C1768   1.417       .  A
C1763      C1772   1.404       .  A
N1764      O1779   1.262       .  A
N1764      O1780   1.262       .  A
N1766      O1777   1.260       .  A
N1766      O1778   1.261       .  A
C1768      N1773   1.430       .  S
C1768      C1769   1.400       .  A
C1769      C1770   1.406       .  A
C1769      H1774   1.084       .  S
C1770      C1771   1.415       .  A
C1771      N1775   1.425       .  S
C1771      C1772   1.404       .  A
C1772      H1776   1.082       .  S
N1773      O1783   1.262       .  A
N1773      O1784   1.262       .  A
N1775      O1781   1.261       .  A
N1775      O1782   1.261       .  A
C1785      C1786   1.402       .  A
C1785      C1790   1.404       .  A
C1785      H1795   1.084       .  S
C1786      C1787   1.414       .  A
C1786      C1791   1.495       .  S
C1787      N1792   1.428       .  S
C1787      C1788   1.408       .  A
C1788      C1789   1.405       .  A
C1788      H1793   1.083       .  S
C1789      C1790   1.416       .  A
C1790      N1794   1.430       .  S
C1791      C1796   1.414       .  A
C1791      C1800   1.406       .  A
N1792      O1807   1.262       .  A
N1792      O1808   1.262       .  A
N1794      O1805   1.262       .  A
N1794      O1806   1.262       .  A
C1796      N1801   1.428       .  S
C1796      C1797   1.406       .  A
C1797      C1798   1.401       .  A
C1797      H1802   1.082       .  S
C1798      C1799   1.409       .  A
C1799      N1803   1.429       .  S
C1799      C1800   1.405       .  A
C1800      H1804   1.084       .  S
N1801      O1811   1.262       .  A
N1801      O1812   1.262       .  A
N1803      O1809   1.262       .  A
N1803      O1810   1.261       .  A
C1813      C1814   1.399       .  A
C1813      C1818   1.400       .  A
C1813      H1823   1.084       .  S
C1814      C1815   1.411       .  A
C1814      C1819   1.478       .  S
C1815      N1820   1.428       .  S
C1815      C1816   1.401       .  A
C1816      C1817   1.398       .  A
C1816      H1821   1.083       .  S
C1817      C1818   1.409       .  A
C1818      N1822   1.428       .  S
C1819      C1824   1.405       .  A
C1819      C1828   1.400       .  A
N1820      O1835   1.261       .  A
N1820      O1836   1.262       .  A
N1822      O1833   1.262       .  A
N1822      O1834   1.261       .  A
C1824      N1829   1.428       .  S
C1824      C1825   1.403       .  A
C1825      C1826   1.405       .  A
C1825      H1830   1.083       .  S
C1826      C1827   1.417       .  A
C1827      N1831   1.441       .  S
C1827      C1828   1.405       .  A
C1828      H1832   1.084       .  S
N1829      O1839   1.262       .  A
N1829      O1840   1.261       .  A
N1831      O1837   1.262       .  A
N1831      O1838   1.263       .  A
C1841      C1842   1.408       .  A
C1841      C1846   1.403       .  A
C1841      H1851   1.083       .  S
C1842      C1843   1.415       .  A
C1842      C1847   1.491       .  S
C1843      N1848   1.429       .  S
C1843      C1844   1.398       .  A
C1844      C1845   1.398       .  A
C1844      H1849   1.084       .  S
C1845      C1846   1.405       .  A
C1846      N1850   1.431       .  S
C1847      C1852   1.415       .  A
C1847      C1856   1.405       .  A
N1848      O1863   1.262       .  A
N1848      O1864   1.262       .  A
N1850      O1861   1.262       .  A
N1850      O1862   1.262       .  A
C1852      N1857   1.429       .  S
C1852      C1853   1.402       .  A
C1853      C1854   1.399       .  A
C1853      H1858   1.083       .  S
C1854      C1855   1.406       .  A
C1855      N1859   1.427       .  S
C1855      C1856   1.399       .  A
C1856      H1860   1.083       .  S
N1857      O1867   1.262       .  A
N1857      O1868   1.261       .  A
N1859      O1865   1.262       .  A
N1859      O1866   1.261       .  A
C1869      C1870   1.411       .  A
C1869      C1874   1.404       .  A
C1869      H1879   1.082       .  S
C1870      C1871   1.420       .  A
C1870      C1875   1.510       .  S
C1871      N1876   1.428       .  S
C1871      C1872   1.405       .  A
C1872      C1873   1.400       .  A
C1872      H1877   1.083       .  S
C1873      C1874   1.408       .  A
C1874      N1878   1.431       .  S
C1875      C1880   1.421       .  A
C1875      C1884   1.413       .  A
N1876      O1891   1.262       .  A
N1876      O1892   1.261       .  A
N1878      O1889   1.262       .  A
N1878      O1890   1.262       .  A
C1880      N1885   1.429       .  S
C1880      C1881   1.401       .  A
C1881      C1882   1.396       .  A
C1881      H1886   1.082       .  S
C1882      C1883   1.406       .  A
C1883      N1887   1.429       .  S
C1883      C1884   1.408       .  A
C1884      H1888   1.081       .  S
N1885      O1895   1.263       .  A
N1885      O1896   1.261       .  A
N1887      O1893   1.262       .  A
N1887      O1894   1.262       .  A
C1897      C1898   1.407       .  A
C1897      C1902   1.406       .  A
C1897      H1907   1.082       .  S
C1898      C1899   1.413       .  A
C1898      C1903   1.491       .  S
C1899      N1904   1.427       .  S
C1899      C1900   1.399       .  A
C1900      C1901   1.396       .  A
C1900      H1905   1.080       .  S
C1901      C1902   1.408       .  A
C1902      N1906   1.429       .  S
C1903      C1908   1.415       .  A
C1903      C1912   1.408       .  A
N1904      O1919   1.261       .  A
N1904      O1920   1.262       .  A
N1906      O1917   1.261       .  A
N1906      O1918   1.262       .  A
C1908      N1913   1.428       .  S
C1908      C1909   1.398       .  A
C1909      C1910   1.396       .  A
C1909      H1914   1.085       .  S
C1910      C1911   1.406       .  A
C1911      N1915   1.428       .  S
C1911      C1912   1.408       .  A
C1912      H1916   1.084       .  S
N1913      O1923   1.262       .  A
N1913      O1924   1.261       .  A
N1915      O1921   1.262       .  A
N1915      O1922   1.261       .  A
C1925      C1926   1.404       .  A
C1925      C1930   1.402       .  A
C1925      H1935   1.083       .  S
C1926      C1927   1.419       .  A
C1926      C1931   1.503       .  S
C1927      N1932   1.430       .  S
C1927      C1928   1.400       .  A
C1928      C1929   1.405       .  A
C1928      H1933   1.085       .  S
C1929      C1930   1.412       .  A
C1930      N1934   1.426       .  S
C1931      C1936   1.418       .  A
C1931      C1940   1.405       .  A
N1932      O1947   1.262       .  A
N1932      O1948   1.262       .  A
N1934      O1945   1.261       .  A
N1934      O1946   1.262       .  A
C1936      N1941   1.430       .  S
C1936      C1937   1.397       .  A
C1937      C1938   1.404       .  A
C1937      H1942   1.085       .  S
C1938      C1939   1.414       .  A
C1939      N1943   1.426       .  S
C1939      C1940   1.405       .  A
C1940      H1944   1.082       .  S
N1941      O1951   1.262       .  A
N1941      O1952   1.262       .  A
N1943      O1949   1.262       .  A
N1943      O1950   1.261       .  A
C1953      C1954   1.398       .  A
C1953      C1958   1.400       .  A
C1953      H1963   1.085       .  S
C1954      C1955   1.405       .  A
C1954      C1959   1.477       .  S
C1955      N1960   1.427       .  S
C1955      C1956   1.402       .  A
C1956      C1957   1.406       .  A
C1956      H1961   1.084       .  S
C1957      C1958   1.416       .  A
C1958      N1962   1.430       .  S
C1959      C1964   1.412       .  A
C1959      C1968   1.400       .  A
N1960      O1975   1.262       .  A
N1960      O1976   1.261       .  A
N1962      O1973   1.262       .  A
N1962      O1974   1.261       .  A
C1964      N1969   1.428       .  S
C1964      C1965   1.401       .  A
C1965      C1966   1.397       .  A
C1965      H1970   1.083       .  S
C1966      C1967   1.408       .  A
C1967      N1971   1.427       .  S
C1967      C1968   1.399       .  A
C1968      H1972   1.085       .  S
N1969      O1979   1.262       .  A
N1969      O1980   1.262       .  A
N1971      O1977   1.261       .  A
N1971      O1978   1.261       .  A
C1981      C1982   1.402       .  A
C1981      C1986   1.398       .  A
C1981      H1991   1.084       .  S
C1982      C1983   1.414       .  A
C1982      C1987   1.491       .  S
C1983      N1988   1.428       .  S
C1983      C1984   1.408       .  A
C1984      C1985   1.403       .  A
C1984      H1989   1.084       .  S
C1985      C1986   1.410       .  A
C1986      N1990   1.429       .  S
C1987      C1992   1.413       .  A
C1987      C1996   1.403       .  A
N1988      O2003   1.262       .  A
N1988      O2004   1.262       .  A
N1990      O2001   1.262       .  A
N1990      O2002   1.262       .  A
C1992      N1997   1.429       .  S
C1992      C1993   1.402       .  A
C1993      C1994   1.403       .  A
C1993      H1998   1.082       .  S
C1994      C1995   1.417       .  A
C1995      N1999   1.430       .  S
C1995      C1996   1.406       .  A
C1996      H2000   1.084       .  S
N1997      O2007   1.262       .  A
N1997      O2008   1.262       .  A
N1999      O2005   1.262       .  A
N1999      O2006   1.262       .  A
C2009      C2010   1.405       .  A
C2009      C2014   1.403       .  A
C2009      H2019   1.084       .  S
C2010      C2011   1.412       .  A
C2010      C2015   1.495       .  S
C2011      N2016   1.427       .  S
C2011      C2012   1.406       .  A
C2012      C2013   1.403       .  A
C2012      H2017   1.084       .  S
C2013      C2014   1.410       .  A
C2014      N2018   1.428       .  S
C2015      C2020   1.413       .  A
C2015      C2024   1.409       .  A
N2016      O2031   1.262       .  A
N2016      O2032   1.261       .  A
N2018      O2029   1.261       .  A
N2018      O2030   1.262       .  A
C2020      N2025   1.429       .  S
C2020      C2021   1.399       .  A
C2021      C2022   1.398       .  A
C2021      H2026   1.084       .  S
C2022      C2023   1.409       .  A
C2023      N2027   1.428       .  S
C2023      C2024   1.411       .  A
C2024      H2028   1.083       .  S
N2025      O2035   1.262       .  A
N2025      O2036   1.262       .  A
N2027      O2033   1.262       .  A
N2027      O2034   1.262       .  A
C2037      C2038   1.410       .  A
C2037      C2042   1.402   1_556  A
C2037      H2047   1.084       .  S
C2038      C2039   1.416   1_556  A
C2038      C2043   1.503       .  S
C2039      N2044   1.428       .  S
C2039      C2040   1.403       .  A
C2040      C2041   1.403       .  A
C2040      H2045   1.080       .  S
C2041      C2042   1.411       .  A
C2042      N2046   1.428   1_554  S
C2043      C2048   1.417       .  A
C2043      C2052   1.408       .  A
N2044      O2059   1.262       .  A
N2044      O2060   1.262       .  A
N2046      O2057   1.262   1_556  A
N2046      O2058   1.262       .  A
C2048      N2053   1.428       .  S
C2048      C2049   1.403       .  A
C2049      C2050   1.404       .  A
C2049      H2054   1.083       .  S
C2050      C2051   1.413       .  A
C2051      N2055   1.429       .  S
C2051      C2052   1.401       .  A
C2052      H2056   1.084       .  S
N2053      O2063   1.262       .  A
N2053      O2064   1.262       .  A
N2055      O2061   1.262       .  A
N2055      O2062   1.262       .  A
