geometry optimzed in LAMMPS
_audit_creation_date              2020-11-30 
_audit_creation_method            'lammps2cif' 
_symmetry_space_group_name_H-M    'P1' 
_symmetry_Int_Tables_number       1 
_symmetry_cell_setting            triclinic 
loop_ 
_symmetry_equiv_pos_as_xyz 
  x,y,z 
_cell_length_a                    42.42437482 
_cell_length_b                    42.510767828189906 
_cell_length_c                    33.209273470450675 
_cell_angle_alpha                 89.9259864775003 
_cell_angle_beta                  90.0981194312753 
_cell_angle_gamma                 119.91605458320853 
loop_ 
_atom_site_label 
_atom_site_type_symbol 
_atom_site_fract_x 
_atom_site_fract_y 
_atom_site_fract_z 
_atom_site_charge 
C1          C  0.12121518  0.17642913  0.33068169     0.05100
C2          C  0.09565293  0.15672799  0.29997591     0.05100
C3          C  0.06081331  0.15330326  0.29988830     0.05100
C4          C  0.05226049  0.17213608  0.32904889     0.05100
C5          C  0.07841052  0.19326830  0.35864698     0.05100
C6          C  0.11212176  0.19426572  0.36052404     0.05100
C7          C  0.12186398  0.09518132  0.23011599    -0.08000
C8          C  0.10789219  0.06071181  0.24689104    -0.01900
C9          C  0.11837285  0.03647975  0.23273400    -0.08000
C10         C  0.14346133  0.04672936  0.20059418     0.13000
C11         C  0.15765984  0.08175155  0.18310328     0.00200
C12         C  0.14671072  0.10608802  0.19785967     0.12800
C13         C  0.16110084  0.14067301  0.18027210    -0.09800
C14         C  0.18591211  0.15122708  0.14868559    -0.09800
C15         C  0.19735497  0.12764506  0.13370987     0.12800
C16         C  0.18313456  0.09261114  0.15113956     0.00200
C17         C  0.15492046  0.02316008  0.18566368    -0.09900
C18         C  0.17956716  0.03363887  0.15387236    -0.09900
C19         C  0.19391521  0.06820719  0.13620114     0.13000
C20         C  0.21849127  0.07900490  0.10365106    -0.08000
C21         C  0.23256590  0.11356713  0.08697887    -0.01900
C22         C  0.22232718  0.13789819  0.10146467    -0.08000
H23         H  0.15319055  0.15984438  0.19077664     0.10200
H24         H  0.19618057  0.17812284  0.13617563     0.10200
H25         H  0.13892463  0.49440080  0.19073378     0.10400
H26         H  0.18741217  0.01443887  0.14329755     0.10400
H27         H  0.08935907  0.05301503  0.27226053     0.06800
H28         H  0.25079074  0.12117651  0.06133729     0.06800
C29         C  0.41415401  0.03071950  0.23226700    -0.08000
C30         C  0.44927863  0.05243436  0.24750319    -0.01900
C31         C  0.47263916  0.08673967  0.23136418    -0.08000
C32         C  0.46059519  0.09988909  0.19898435     0.13000
C33         C  0.42497963  0.07792143  0.18317390     0.00200
C34         C  0.40178581  0.04307395  0.19967449     0.12800
C35         C  0.36668359  0.02165549  0.18347663    -0.09800
C36         C  0.35448190  0.03424895  0.15171433    -0.09800
C37         C  0.37673240  0.06891171  0.13528442     0.12800
C38         C  0.41227679  0.09102533  0.15123825     0.00200
C39         C  0.48292754  0.13448604  0.18228001    -0.09900
C40         C  0.47049021  0.14733123  0.15087060    -0.09900
C41         C  0.43522632  0.12608448  0.13504329     0.13000
C42         C  0.42223977  0.13872021  0.10322076    -0.08000
C43         C  0.38730303  0.11673043  0.08783615    -0.01900
C44         C  0.36455469  0.08205963  0.10314260    -0.08000
H45         H  0.35039363  0.49403099  0.19613321     0.10200
H46         H  0.32727882  0.01667059  0.14032366     0.10200
H47         H  0.00926003  0.15246259  0.19305924     0.10400
H48         H  0.48873468  0.17417503  0.13912417     0.10400
H49         H  0.45816645  0.04293497  0.27311281     0.06800
H50         H  0.37805144  0.12636935  0.06265808     0.06800
C51         C  0.11045988  0.45807413  0.33413780     0.05100
C52         C  0.08312634  0.44901019  0.30498018     0.05100
C53         C  0.05011742  0.41600747  0.30812085     0.05100
C54         C  0.04433600  0.39181591  0.34036452     0.05100
C55         C  0.07287658  0.39986237  0.36819974     0.05100
C56         C  0.10595987  0.43302959  0.36488486     0.05100
C57         C  0.33247300  0.45214127  0.33460920     0.05100
C58         C  0.35003922  0.44399757  0.30369425     0.05100
C59         C  0.34646897  0.40935397  0.30106550     0.05100
C60         C  0.32662615  0.38284121  0.33081899     0.05100
C61         C  0.31085220  0.39179818  0.36311118     0.05100
C62         C  0.31232231  0.42563356  0.36408711     0.05100
C63         C  0.46378040  0.38419775  0.23241781    -0.08000
C64         C  0.44020422  0.39585072  0.24600094    -0.01900
C65         C  0.40647445  0.38389993  0.22780451    -0.08000
C66         C  0.39581125  0.35978005  0.19488308     0.13000
C67         C  0.41954889  0.34767612  0.18076257     0.00200
C68         C  0.45375688  0.35995364  0.19956308     0.12800
C69         C  0.47675380  0.34745051  0.18521850    -0.09800
C70         C  0.46631903  0.32329615  0.15292945    -0.09800
C71         C  0.43242489  0.31061160  0.13402245     0.12800
C72         C  0.40883363  0.32290431  0.14814533     0.00200
C73         C  0.36197700  0.34719936  0.17600800    -0.09900
C74         C  0.35160864  0.32318204  0.14379102    -0.09900
C75         C  0.37460327  0.31067436  0.12948323     0.13000
C76         C  0.36434747  0.28639483  0.09679887    -0.08000
C77         C  0.38761807  0.27440000  0.08311402    -0.01900
C78         C  0.42139937  0.28613846  0.10120038    -0.08000
H79         H  0.00332407  0.35780818  0.19898041     0.10200
H80         H  0.48497939  0.31450008  0.14297428     0.10200
H81         H  0.34327061  0.35594797  0.18594073     0.10400
H82         H  0.32527452  0.31438953  0.13025565     0.10400
H83         H  0.44782120  0.41375883  0.27191071     0.06800
H84         H  0.37963397  0.25625715  0.05739661     0.06800
C85         C  0.28528801  0.00168319  0.00084546     0.05100
C86         C  0.27690555  0.01927747  0.03159771     0.05100
C87         C  0.24238797  0.01649706  0.03228745     0.05100
C88         C  0.21643259  0.99723420  0.00180622     0.05100
C89         C  0.23005004  0.48802304  0.96603996     0.05100
C90         C  0.26142304  0.48480467  0.97018238     0.05100
C91         C  0.27840220  0.28326124  0.99737788     0.05100
C92         C  0.27528227  0.25757419  0.02651679     0.05100
C93         C  0.24411735  0.22278089  0.02766586     0.05100
C94         C  0.21579031  0.21330226  0.99934876     0.05100
C95         C  0.21972739  0.23882290  0.96940493     0.05100
C96         C  0.25102248  0.27346413  0.96819080     0.05100
C97         C  0.99663230  0.21656050  0.99804169     0.05100
C98         C  0.48160912  0.22557485  0.03065698     0.05100
C99         C  0.48488875  0.26018750  0.03311079     0.05100
C100        C  0.00561968  0.28724930  0.00450467     0.05100
C101        C  0.02289653  0.27897507  0.97301760     0.05100
C102        C  0.01808264  0.24367662  0.96938025     0.05100
C103        C  0.16162303  0.11300975  0.66763627     0.05100
C104        C  0.18167934  0.10809572  0.63670878     0.05100
C105        C  0.18555110  0.07698247  0.63589794     0.05100
C106        C  0.16833311  0.04959642  0.66563558     0.05100
C107        C  0.14781920  0.05438484  0.69636883     0.05100
C108        C  0.14506356  0.08616365  0.69784424     0.05100
C109        C  0.07432057  0.21285543  0.89606189    -0.08000
C110        C  0.10846665  0.22441337  0.91311470    -0.01900
C111        C  0.13066771  0.21103648  0.89958304    -0.08000
C112        C  0.11911666  0.18570943  0.86777852     0.13000
C113        C  0.08456664  0.17369037  0.85011322     0.00200
C114        C  0.06194340  0.18720023  0.86433666     0.12800
C115        C  0.02763475  0.17455411  0.84658644    -0.09800
C116        C  0.01599948  0.14959434  0.81506591    -0.09800
C117        C  0.03814970  0.13616921  0.80042156     0.12800
C118        C  0.07256053  0.14797250  0.81832603     0.00200
C119        C  0.14108949  0.17197233  0.85334842    -0.09900
C120        C  0.12944300  0.14703008  0.82182583    -0.09900
C121        C  0.09528982  0.13468383  0.80385280     0.13000
C122        C  0.08326959  0.10976401  0.77141887    -0.08000
C123        C  0.04940640  0.09855335  0.75408464    -0.01900
C124        C  0.02710705  0.11161975  0.76789930    -0.08000
H125        H  0.00963550  0.18410634  0.85675245     0.10200
H126        H  0.48934692  0.14100592  0.80294307     0.10200
H127        H  0.16764472  0.18059836  0.86618669     0.10400
H128        H  0.14740114  0.13742846  0.81165071     0.10400
H129        H  0.11751437  0.24339744  0.93810897     0.06800
H130        H  0.04083862  0.08041201  0.72831694     0.06800
C131        C  0.08568124  0.36639668  0.90077627    -0.08000
C132        C  0.12126946  0.39001200  0.91373617    -0.01900
C133        C  0.14282508  0.42372512  0.89523893    -0.08000
C134        C  0.12871006  0.43405273  0.86235126     0.13000
C135        C  0.09255176  0.41041641  0.84897441     0.00200
C136        C  0.07091134  0.37650310  0.86831634     0.12800
C137        C  0.03499242  0.35379951  0.85493641    -0.09800
C138        C  0.02055953  0.36416297  0.82318250    -0.09800
C139        C  0.04149023  0.39759626  0.80352476     0.12800
C140        C  0.07785718  0.42092377  0.81650890     0.00200
C141        C  0.14963033  0.46749918  0.84273720    -0.09900
C142        C  0.13551008  0.47745834  0.81039933    -0.09900
C143        C  0.09972494  0.45458323  0.79678794     0.13000
C144        C  0.08531447  0.46435708  0.76376881    -0.08000
C145        C  0.04939810  0.44136130  0.75153368    -0.01900
C146        C  0.02726776  0.40826960  0.77096125    -0.08000
H147        H  0.01767228  0.32774454  0.86897189     0.10200
H148        H  0.49358859  0.34572319  0.81359556     0.10200
H149        H  0.17727779  0.48616888  0.85206283     0.10400
H150        H  0.15297251  0.00353918  0.80348680     0.10400
H151        H  0.13197163  0.38250242  0.93942052     0.06800
H152        H  0.03879536  0.44891385  0.72579041     0.06800
C153        C  0.38190171  0.05116732  0.66558904     0.05100
C154        C  0.40863691  0.05764263  0.69498467     0.05100
C155        C  0.44344142  0.08851504  0.69182043     0.05100
C156        C  0.45236842  0.11319455  0.65949585     0.05100
C157        C  0.42563326  0.10686296  0.63013288     0.05100
C158        C  0.39064740  0.07612771  0.63349370     0.05100
C159        C  0.38019888  0.32535643  0.66893976     0.05100
C160        C  0.40596397  0.34552458  0.69932281     0.05100
C161        C  0.43921463  0.34545922  0.70179571     0.05100
C162        C  0.44690838  0.32524046  0.67343760     0.05100
C163        C  0.42192376  0.30669234  0.64185964     0.05100
C164        C  0.38880739  0.30685925  0.63935753     0.05100
C165        C  0.28463196  0.42017383  0.90000780    -0.08000
C166        C  0.26977672  0.38449320  0.91355662    -0.01900
C167        C  0.27939438  0.36063319  0.89606500    -0.08000
C168        C  0.30451051  0.37258078  0.86374828     0.13000
C169        C  0.31968412  0.40884024  0.84957721     0.00200
C170        C  0.30967778  0.43273903  0.86780259     0.12800
C171        C  0.32511472  0.46858091  0.85353544    -0.09800
C172        C  0.34960746  0.48066104  0.82158079    -0.09800
C173        C  0.35992150  0.45749361  0.80298850     0.12800
C174        C  0.34514783  0.42135362  0.81740018     0.00200
C175        C  0.31509506  0.34950268  0.84545487    -0.09900
C176        C  0.34005058  0.36175180  0.81382946    -0.09900
C177        C  0.35540933  0.39757155  0.79935739     0.13000
C178        C  0.38051103  0.41021013  0.76709563    -0.08000
C179        C  0.39447049  0.44571163  0.75284137    -0.01900
C180        C  0.38431402  0.46935713  0.77008758    -0.08000
H181        H  0.31817445  0.48757604  0.86683061     0.10200
H182        H  0.35578785  0.00903215  0.81106680     0.10200
H183        H  0.30404239  0.32170644  0.85542003     0.10400
H184        H  0.34718958  0.34282804  0.80074349     0.10400
H185        H  0.25115465  0.37543639  0.93891040     0.06800
H186        H  0.41279577  0.45477132  0.72724304     0.06800
C187        C  0.05064679  0.31176771  0.43671057    -0.08000
C188        C  0.06306291  0.29078897  0.41729350    -0.01900
C189        C  0.05140878  0.25507232  0.42923697    -0.08000
C190        C  0.02679193  0.23952653  0.46156344     0.13000
C191        C  0.01377007  0.26027512  0.48143504     0.00200
C192        C  0.02572773  0.29656085  0.46904663     0.12800
C193        C  0.01220879  0.31644913  0.48912276    -0.09800
C194        C  0.48831974  0.30167886  0.52026344    -0.09800
C195        C  0.47608847  0.26589376  0.53325578     0.12800
C196        C  0.48893099  0.24493527  0.51344554     0.00200
C197        C  0.01465467  0.20366548  0.47432065    -0.09900
C198        C  0.49017218  0.18853647  0.50626438    -0.09900
C199        C  0.47696157  0.20873569  0.52615128     0.13000
C200        C  0.45235908  0.19392600  0.55869657    -0.08000
C201        C  0.44002650  0.21494991  0.57792629    -0.01900
C202        C  0.45159631  0.25052379  0.56578416    -0.08000
H203        H  0.02067400  0.34412296  0.48053681     0.10200
H204        H  0.47896365  0.31838541  0.53462746     0.10200
H205        H  0.02410030  0.18704570  0.45993628     0.10400
H206        H  0.48158644  0.16088575  0.51508560     0.10400
H207        H  0.08137986  0.30212100  0.39184261     0.06800
H208        H  0.42186265  0.20376431  0.60354229     0.06800
C209        C  0.19579446  0.25212453  0.43828521    -0.08000
C210        C  0.21932209  0.28675591  0.42361613    -0.01900
C211        C  0.25417461  0.30782209  0.43942131    -0.08000
C212        C  0.26627700  0.29437697  0.47130671     0.13000
C213        C  0.24245288  0.25929674  0.48696982     0.00200
C214        C  0.20691910  0.23810875  0.47056038     0.12800
C215        C  0.18374825  0.20346849  0.48654995    -0.09800
C216        C  0.19515419  0.18986176  0.51812992    -0.09800
C217        C  0.23040280  0.21012084  0.53432359     0.12800
C218        C  0.25442394  0.24505436  0.51845227     0.00200
C219        C  0.30150257  0.31468657  0.48755144    -0.09900
C220        C  0.31329753  0.30064527  0.51843526    -0.09900
C221        C  0.29029263  0.26579439  0.53416509     0.13000
C222        C  0.30190088  0.25099173  0.56530337    -0.08000
C223        C  0.27775449  0.21674487  0.58078154    -0.01900
C224        C  0.24233252  0.19646911  0.56607944    -0.08000
H225        H  0.15648952  0.18670317  0.47487713     0.10200
H226        H  0.17619854  0.16308704  0.52952337     0.10200
H227        H  0.32025966  0.34160384  0.47635400     0.10400
H228        H  0.34068569  0.31725951  0.52981632     0.10400
H229        H  0.21086147  0.29696226  0.39823903     0.06800
H230        H  0.28638506  0.20604820  0.60551763     0.06800
C231        C  0.25188457  0.45525653  0.43227075    -0.08000
C232        C  0.21759005  0.44523243  0.41651328    -0.01900
C233        C  0.19708192  0.46007995  0.43145331    -0.08000
C234        C  0.21101532  0.48569584  0.46309812     0.13000
C235        C  0.24574129  0.49591957  0.47953107     0.00200
C236        C  0.26630542  0.48066426  0.46406976     0.12800
C237        C  0.30067822  0.49123472  0.48079406    -0.09800
C238        C  0.31322430  0.01463746  0.51277911    -0.09800
C239        C  0.29218930  0.02873380  0.52902689     0.12800
C240        C  0.25696686  0.01689149  0.51340726     0.00200
C241        C  0.19121802  0.50134450  0.47874080    -0.09900
C242        C  0.20023656  0.01821960  0.51401142    -0.09900
C243        C  0.23528841  0.03072974  0.52959913     0.13000
C244        C  0.24915886  0.05630370  0.56136527    -0.08000
C245        C  0.28387233  0.06768699  0.57637784    -0.01900
C246        C  0.30515630  0.05398712  0.56094265    -0.08000
H247        H  0.31718544  0.48026817  0.46964052     0.10200
H248        H  0.34032636  0.02326074  0.52394510     0.10200
H249        H  0.16473290  0.49432449  0.46683462     0.10400
H250        H  0.18299621  0.02821312  0.52550561     0.10400
H251        H  0.20701627  0.42613808  0.39165926     0.06800
H252        H  0.29386671  0.08629846  0.60171732     0.06800
O253        O  0.45653670  0.02049521  0.97310974    -0.85500
C254        C  0.03027035  0.05895775  0.06503196     0.90500
Mg255      Mg  0.40981183  0.45415057  0.98514223     1.58100
O256        O  0.06344445  0.04338631  0.97442994    -0.85200
O257        O  0.00279414  0.05750747  0.93564988    -0.72500
C258        C  0.50523126  0.37493723  0.03009611     0.95600
O259        O  0.44387851  0.99662151  0.06635851    -0.72400
O260        O  0.47505081  0.37256914  0.03890751    -0.79900
Mg261      Mg  0.46308204  0.04887554  0.02948979     1.58000
C262        C  0.12672274  0.99445035  0.97836372     0.95500
O263        O  0.48086347  0.10603643  0.00133782    -0.78100
H264        H  0.07642227  0.05447900  0.91627817    -0.03500
C265        C  0.04031406  0.47769802  0.06610496     0.90500
O266        O  0.44155290  0.43737399  0.94280479    -0.72600
O267        O  0.01844022  0.06037538  0.03142940    -0.85400
O268        O  0.12570494  0.02177517  0.99227167    -0.78200
C269        C  0.13093426  0.12237599  0.02553552     0.95600
C270        C  0.01113220  0.13370121  0.99136613     0.95500
Mg271      Mg  0.03952514  0.45242059  0.97956369     1.58000
O272        O  0.03125201  0.40332325  0.01576741    -0.78100
O273        O  0.05182592  0.49747989  0.93382549    -0.72400
O274        O  0.10238123  0.12226735  0.01405881    -0.78200
O275        O  0.40404912  0.03494339  0.02791802    -0.79900
O276        O  0.40489358  0.37162918  0.00729734    -0.78200
C277        C  0.06683015  0.03443972  0.94007119     0.89900
O278        O  0.48357016  0.43680937  0.98039736    -0.85400
O279        O  0.04989024  0.48784361  0.03107588    -0.85500
O280        O  0.50840707  0.45291812  0.07347751    -0.72600
Mg281      Mg  0.05104004  0.08617151  0.97883407     1.58000
O282        O  0.13242169  0.09340274  0.02957894    -0.79900
H283        H  0.45158933  0.02685085  0.91423466    -0.03700
O284        O  0.43963993  0.45357383  0.03723122    -0.85200
H285        H  0.43364603  0.45043315  0.09704785    -0.03500
H286        H  0.47704164  0.42216072  0.92243497    -0.03700
C287        C  0.43952991  0.46686020  0.07021489     0.89900
C288        C  0.46926121  0.03476238  0.94025946     0.90500
C289        C  0.46772938  0.43133677  0.94772139     0.90500
H290        H  0.05957519  0.49088746  0.09029463    -0.03600
O291        O  0.05351862  0.04872100  0.06964914    -0.72700
Mg292      Mg  0.45722062  0.41457297  0.03730520     1.58000
H293        H  0.01970136  0.06554401  0.09132770    -0.03600
C294        C  0.37545264  0.00461964  0.02121859     0.95500
O295        O  0.36855008  0.39404294  0.99302807    -0.79900
C296        C  0.37395462  0.36734664  0.99788687     0.95600
O297        O  0.03917609  0.13134072  0.98418161    -0.79900
Mg298      Mg  0.08716063  0.03419145  0.02742724     1.58200
O299        O  0.37172111  0.46774520  0.02103167    -0.78200
O300        O  0.09706502  0.46769110  0.97884733    -0.79900
O301        O  0.28995429  0.18842115  0.30831276    -0.85500
C302        C  0.36752845  0.23196146  0.39675429     0.90500
Mg303      Mg  0.24762629  0.13224923  0.30976816     1.58100
O304        O  0.39627904  0.21195902  0.30515880    -0.85200
O305        O  0.33431248  0.22532647  0.26900423    -0.72500
C306        C  0.33045698  0.03845136  0.35309451     0.95600
O307        O  0.28012794  0.16883743  0.40260821    -0.72400
O308        O  0.30031461  0.03727830  0.35937046    -0.79900
Mg309      Mg  0.29795948  0.21925948  0.36286487     1.58000
C310        C  0.45965453  0.16307509  0.30876475     0.95500
O311        O  0.31446541  0.27458215  0.33209270    -0.78100
H312        H  0.40460190  0.21929481  0.24580515    -0.03500
C313        C  0.36901964  0.13709978  0.39403673     0.90500
O314        O  0.27974878  0.11552795  0.26799791    -0.72600
O315        O  0.35386580  0.23128276  0.36366871    -0.85400
O316        O  0.45895856  0.19057240  0.32235426    -0.78200
C317        C  0.46801093  0.29160398  0.34840336     0.95600
C318        C  0.34465007  0.30253287  0.32256262     0.95500
Mg319      Mg  0.37182564  0.11859333  0.30554595     1.58000
O320        O  0.35831547  0.06646395  0.33940789    -0.78100
O321        O  0.38760908  0.16786063  0.26468534    -0.72400
O322        O  0.43934745  0.29312103  0.34089756    -0.78200
O323        O  0.23852189  0.20551991  0.36129572    -0.79900
O324        O  0.23272126  0.04380728  0.32797836    -0.78200
C325        C  0.39692370  0.20080336  0.27102083     0.89900
O326        O  0.31615240  0.10561583  0.30599186    -0.85400
O327        O  0.37982507  0.14959144  0.36002700    -0.85500
O328        O  0.33590742  0.11416942  0.40076778    -0.72600
Mg329      Mg  0.38477872  0.25548587  0.30942074     1.58000
O330        O  0.46735700  0.26181088  0.35360503    -0.79900
H331        H  0.28241855  0.19324269  0.24968799    -0.03700
O332        O  0.27258360  0.12469505  0.36281867    -0.85200
H333        H  0.26237249  0.11735354  0.42186269    -0.03500
H334        H  0.31234901  0.09714228  0.24655637    -0.03700
C335        C  0.27094885  0.13587539  0.39660994     0.89900
C336        C  0.30112541  0.20205233  0.27482811     0.90500
C337        C  0.30293818  0.10523982  0.27267396     0.90500
H338        H  0.38798359  0.14697214  0.41894106    -0.03600
O339        O  0.39123709  0.22226363  0.40077782    -0.72700
Mg340      Mg  0.28589823  0.08201606  0.36068925     1.58000
H341        H  0.35845801  0.24018031  0.42305547    -0.03600
C342        C  0.20938951  0.17531806  0.35584674     1.02100
O343        O  0.20292764  0.07284496  0.31100185    -0.79900
C344        C  0.20417829  0.04379833  0.31615399     0.95600
O345        O  0.37310473  0.30089308  0.31523305    -0.79900
Mg346      Mg  0.42203171  0.20466982  0.35762671     1.58200
O347        O  0.20947138  0.14681170  0.34413328    -0.78200
O348        O  0.43100581  0.13255498  0.30372020    -0.79900
O349        O  0.12557868  0.35283753  0.63528741    -0.85500
C350        C  0.20281955  0.39989027  0.72211729     0.90500
Mg351      Mg  0.08127895  0.29818914  0.64043351     1.58100
O352        O  0.22972183  0.37436668  0.63352082    -0.85200
O353        O  0.16901531  0.38715605  0.59358836    -0.72500
C354        C  0.15880485  0.20035346  0.69029708     0.95600
O355        O  0.11665361  0.33863727  0.73077331    -0.72400
O356        O  0.12866289  0.19970741  0.69514573    -0.79900
Mg357      Mg  0.13474728  0.38678765  0.68719870     1.58000
C358        C  0.29045215  0.32294193  0.64455540     0.95500
O359        O  0.15043583  0.43829679  0.65168813    -0.78100
H360        H  0.23737536  0.37760098  0.57392503    -0.03500
C361        C  0.20002369  0.30132106  0.72675268     0.90500
O362        O  0.11066671  0.27674370  0.60047240    -0.72600
O363        O  0.18979823  0.39841052  0.68841632    -0.85400
O364        O  0.29018898  0.35167987  0.65389753    -0.78200
C365        C  0.30227756  0.45409741  0.67497684     0.95600
C366        C  0.17824530  0.46579938  0.63724155     0.95500
Mg367      Mg  0.20231288  0.27939484  0.64066794     1.58000
O368        O  0.18733119  0.22821939  0.67745318    -0.78100
O369        O  0.21934984  0.32726492  0.59705267    -0.72400
O370        O  0.27510102  0.45714616  0.66383009    -0.78200
O371        O  0.07724783  0.37601565  0.68441412    -0.79900
O372        O  0.06064870  0.20832210  0.66373305    -0.78200
C373        C  0.22954144  0.36075566  0.60058424     0.89900
O374        O  0.14661341  0.26723115  0.63954742    -0.85400
O375        O  0.21045097  0.31294704  0.69239832    -0.85500
O376        O  0.16697769  0.27846348  0.73399121    -0.72600
Mg377      Mg  0.21991436  0.41935775  0.63274240     1.58000
O378        O  0.29976617  0.42377626  0.68251536    -0.79900
H379        H  0.11670695  0.35396793  0.57629141    -0.03700
O380        O  0.10551713  0.29121023  0.69456650    -0.85200
H381        H  0.09781954  0.28823920  0.75414084    -0.03500
H382        H  0.14135880  0.25546443  0.58080556    -0.03700
C383        C  0.10593767  0.30501922  0.72742335     0.89900
C384        C  0.13598048  0.36432290  0.60088735     0.90500
C385        C  0.13309116  0.26562146  0.60612084     0.90500
H386        H  0.21927738  0.31159777  0.75137290    -0.03600
O387        O  0.22465524  0.38819162  0.72843063    -0.72700
Mg388      Mg  0.11610887  0.24630591  0.69473560     1.58000
H389        H  0.19430124  0.41010894  0.74715312    -0.03600
C390        C  0.04692237  0.34719225  0.67978422     0.95500
O391        O  0.03494160  0.24120310  0.64651292    -0.79900
C392        C  0.03295628  0.21090781  0.65353116     0.95600
O393        O  0.20811052  0.46630938  0.63093498    -0.79900
Mg394      Mg  0.25390152  0.36757515  0.68763013     1.58200
O395        O  0.04471526  0.31681304  0.67183345    -0.78200
O396        O  0.26149236  0.29227641  0.64191488    -0.79900
C397        C  0.48028454  0.32183425  0.67685333    -0.13600
C398        C  0.01373630  0.35019709  0.68113008    -0.28800
H399        H  0.47710673  0.29498960  0.67335906     0.15400
H400        H  0.01750861  0.37738589  0.68178233     0.16000
C401        C  0.34313610  0.32135319  0.67090436    -0.13600
C402        C  0.32601562  0.32575084  0.63913492    -0.28800
H403        H  0.33004177  0.31584453  0.70022907     0.15400
H404        H  0.33946023  0.33464646  0.61020866     0.16000
C405        C  0.39100614  0.38691185  0.74632689    -0.10400
C406        C  0.39866767  0.36783473  0.72657427    -0.12000
C407        C  0.33694418  0.27088582  0.58516025    -0.10400
C408        C  0.36258560  0.28667810  0.60771986    -0.12000
C409        C  0.43952761  0.27104465  0.58935359    -0.10400
C410        C  0.43055135  0.28730052  0.61199298    -0.12000
C411        C  0.33882092  0.48589579  0.67691306    -0.13600
C412        C  0.34434963  0.01898674  0.66834698    -0.28800
H413        H  0.36138334  0.48065127  0.67747946     0.15400
H414        H  0.32138247  0.02313077  0.66316937     0.16000
C415        C  0.49004889  0.14511671  0.65680750    -0.13600
C416        C  0.99653348  0.17840511  0.65172977    -0.28800
H417        H  0.51286036  0.14069707  0.66185259     0.15400
H418        H  0.97364088  0.18305694  0.64961160     0.16000
C419        C  0.39665825  0.50417812  0.75058441    -0.10400
C420        C  0.40087340  0.03192187  0.72763655    -0.12000
C421        C  0.33835707  0.06352334  0.58185283    -0.10400
C422        C  0.36337432  0.06996385  0.60377110    -0.12000
C423        C  0.43356941  0.13286702  0.59771055    -0.10400
C424        C  0.44153765  0.15869245  0.57611203    -0.12000
C425        C  0.99150698  0.38477014  0.75374942    -0.10400
C426        C  0.46588106  0.36647610  0.73282343    -0.12000
C427        C  0.47017908  0.09532460  0.72239966    -0.10400
C428        C  0.99484183  0.10191432  0.74500617    -0.12000
C429        C  0.15620804  0.14524845  0.66567787    -0.13600
C430        C  0.16083224  0.16723040  0.69699385    -0.28800
H431        H  0.15049176  0.15256475  0.63626014     0.15400
H432        H  0.16931157  0.16279803  0.72628770     0.16000
C433        C  0.17584219  0.49875511  0.63100064    -0.13600
C434        C  0.17352941  0.01710274  0.66766578    -0.28800
H435        H  0.17362242  0.50657623  0.60055262     0.15400
H436        H  0.17540837  0.00758853  0.69751072     0.16000
C437        C  0.10729887  0.49686100  0.74037015    -0.10400
C438        C  0.12732537  0.02534121  0.72494013    -0.12000
C439        C  0.12369451  0.09064240  0.72911769    -0.10400
C440        C  0.10601386  0.09804307  0.75164505    -0.12000
C441        C  0.20868172  0.07407300  0.60566120    -0.10400
C442        C  0.22723660  0.06804206  0.58292875    -0.12000
C443        C  0.20086252  0.13676125  0.60746811    -0.10400
C444        C  0.21858245  0.16279456  0.58637774    -0.12000
C445        C  0.01611217  0.17061848  0.99029323    -0.13600
C446        C  0.98922499  0.17825670  0.99437788    -0.28800
H447        H  0.04399242  0.19282471  0.98872006     0.15400
H448        H  0.46211199  0.15631379  0.99919348     0.16000
C449        C  0.00657363  0.32296004  0.00368507    -0.13600
C450        C  0.00978211  0.34311148  0.03632965    -0.28800
H451        H  0.50423231  0.33260057  0.97358872     0.15400
H452        H  0.01358244  0.33531525  0.06625860     0.16000
C453        C  0.04577618  0.30728953  0.94458376    -0.10400
C454        C  0.06422143  0.33320353  0.92339173    -0.12000
C455        C  0.03565038  0.23527277  0.93682955    -0.10400
C456        C  0.05201815  0.22582395  0.91469054    -0.12000
C457        C  0.16379554  0.15777975  0.03086997    -0.13600
C458        C  0.18312115  0.17601673  0.99824036    -0.28800
H459        H  0.17036160  0.16979118  0.06065776     0.15400
H460        H  0.17357852  0.16367041  0.96879297     0.16000
C461        C  0.34370093  0.32980306  0.99427140    -0.13600
C462        C  0.30899185  0.32141740  0.99837937    -0.28800
H463        H  0.35017648  0.30821183  0.99103988     0.15400
H464        H  0.30231589  0.34291392  0.00100622     0.16000
C465        C  0.26538587  0.32547347  0.91505053    -0.10400
C466        C  0.25614921  0.29954218  0.93683020    -0.12000
C467        C  0.19039309  0.23024145  0.94153877    -0.10400
C468        C  0.16413016  0.22216824  0.92093055    -0.12000
C469        C  0.32214622  0.00570365  0.99735065    -0.13600
C470        C  0.33992155  0.00123707  0.02827368    -0.28800
H471        H  0.33707310  0.51117134  0.97367400     0.15400
H472        H  0.32801237  0.99394569  0.05810327     0.16000
C473        C  0.17968217  0.99367872  0.00432237    -0.13600
C474        C  0.16246744  0.99801998  0.97266244    -0.28800
H475        H  0.16685756  0.98849450  0.03378415     0.15400
H476        H  0.15326845  0.46356693  0.98097642     0.16000
C477        C  0.20361401  0.46764998  0.93460534    -0.10400
C478        C  0.17778395  0.44824095  0.91354422    -0.12000
C479        C  0.27506740  0.44364502  0.92159233    -0.10400
C480        C  0.26809178  0.46259686  0.94231185    -0.12000
C481        C  0.46330758  0.26660474  0.06238245    -0.10400
C482        C  0.44477507  0.27449495  0.08286055    -0.12000
C483        C  0.30466333  0.26658919  0.05447365    -0.10400
C484        C  0.33098218  0.27483303  0.07505857    -0.12000
C485        C  0.33308731  0.48748391  0.33316465    -0.13600
C486        C  0.33286816  0.00564776  0.35938782    -0.28800
H487        H  0.32870934  0.49637326  0.30398644     0.15400
H488        H  0.34107999  0.00083545  0.38866444     0.16000
C489        C  0.34845812  0.33887641  0.32203606    -0.13600
C490        C  0.32086133  0.34518171  0.32811983    -0.28800
H491        H  0.37593826  0.36164967  0.31944315     0.15400
H492        H  0.29382202  0.32249574  0.33399015     0.16000
C493        C  0.29049310  0.43210659  0.39281912    -0.10400
C494        C  0.27256508  0.44096561  0.41292213    -0.12000
C495        C  0.29318536  0.36591546  0.39529852    -0.10400
C496        C  0.27731721  0.34135820  0.41873992    -0.12000
C497        C  0.36452603  0.40168438  0.26870490    -0.10400
C498        C  0.38245720  0.39440112  0.24656902    -0.12000
C499        C  0.14255534  0.49520105  0.33346187    -0.13600
C500        C  0.17098491  0.00865681  0.31047349    -0.28800
H501        H  0.13767758  0.51788691  0.33636798     0.15400
H502        H  0.16561822  0.99570913  0.28117413     0.16000
C503        C  0.00776021  0.35874950  0.34483859    -0.13600
C504        C  0.50378028  0.32482556  0.34845826    -0.28800
H505        H  0.98392087  0.36178708  0.34159646     0.15400
H506        H  0.52741694  0.32130538  0.34836581     0.16000
C507        C  0.06827992  0.37358874  0.39931125    -0.10400
C508        C  0.06155541  0.34736206  0.41984771    -0.12000
C509        C  0.13566756  0.44143798  0.39250197    -0.10400
C510        C  0.16265795  0.44957652  0.41208752    -0.12000
C511        C  0.49690948  0.39611307  0.25489841    -0.10400
C512        C  0.02200440  0.40655690  0.27806033    -0.12000
C513        C  0.44463245  0.17280400  0.08301153    -0.10400
C514        C  0.46161766  0.19844827  0.06116179    -0.12000
C515        C  0.33030786  0.05990375  0.08253504    -0.10400
C516        C  0.30450538  0.04171434  0.06100827    -0.12000
C517        C  0.37298482  0.47208075  0.27544123    -0.10400
C518        C  0.39047387  0.99717804  0.25294243    -0.12000
C519        C  0.24151610  0.19633085  0.05710572    -0.10400
C520        C  0.23496386  0.17140864  0.07945734    -0.12000
C521        C  0.23456482  0.03611782  0.06237151    -0.10400
C522        C  0.22752323  0.05450892  0.08381998    -0.12000
C523        C  0.08979375  0.47441934  0.27214511    -0.10400
C524        C  0.10493634  0.00277161  0.25456657    -0.12000
C525        C  0.17400060  0.17335529  0.36090761    -0.13600
C526        C  0.15814645  0.17989264  0.32930378    -0.28800
H527        H  0.16014259  0.16455959  0.38964160     0.15400
H528        H  0.17188722  0.18607484  0.30033232     0.16000
C529        C  0.49533238  0.16671353  0.30158240    -0.13600
C530        C  0.01511000  0.16768384  0.33171160    -0.28800
H531        H  0.50590715  0.17151298  0.27113108     0.15400
H532        H  0.00358744  0.16488420  0.36164005     0.16000
C533        C  0.07117250  0.21562272  0.38576000    -0.10400
C534        C  0.06343232  0.23420357  0.40619406    -0.12000
C535        C  0.13799158  0.21452601  0.39224959    -0.10400
C536        C  0.16234506  0.23086634  0.41608083    -0.12000
C537        C  0.50722787  0.10888942  0.25153308    -0.10400
C538        C  0.03300249  0.12883953  0.27156258    -0.12000
C539        C  0.11212104  0.11935251  0.24938087    -0.10400
C540        C  0.10427369  0.13734470  0.27043932    -0.12000
C541        C  0.12051513  0.67542172  0.33454414     0.05100
C542        C  0.09533830  0.65601065  0.30358470     0.05100
C543        C  0.06069677  0.65308730  0.30342270     0.05100
C544        C  0.05188925  0.67140951  0.33301529     0.05100
C545        C  0.07758864  0.69172236  0.36324168     0.05100
C546        C  0.11119191  0.69254763  0.36488625     0.05100
C547        C  0.12016310  0.59448732  0.23047659    -0.08000
C548        C  0.10502208  0.55910040  0.24514235    -0.01900
C549        C  0.11433350  0.53455131  0.22892526    -0.08000
C550        C  0.13961210  0.54557950  0.19676775     0.13000
C551        C  0.15504770  0.58151975  0.18140186     0.00200
C552        C  0.14500274  0.60598191  0.19807543     0.12800
C553        C  0.16036357  0.64132631  0.18226060    -0.09800
C554        C  0.18551627  0.65266773  0.15091041    -0.09800
C555        C  0.19654619  0.62922420  0.13457207     0.12800
C556        C  0.18112766  0.59328091  0.14987411     0.00200
C557        C  0.15023589  0.52197483  0.17988912    -0.09900
C558        C  0.17570461  0.53346713  0.14873434    -0.09900
C559        C  0.19161691  0.56904497  0.13349737     0.13000
C560        C  0.21767929  0.58122230  0.10219613    -0.08000
C561        C  0.23277889  0.61661300  0.08776053    -0.01900
C562        C  0.22247105  0.64057034  0.10318726    -0.08000
H563        H  0.15301886  0.66053333  0.19406299     0.10200
H564        H  0.19659108  0.68014542  0.13983250     0.10200
H565        H  0.14472224  0.99632383  0.19832355     0.10400
H566        H  0.18304798  0.51430121  0.13679748     0.10400
H567        H  0.08651082  0.55087062  0.27056993     0.06800
H568        H  0.25211562  0.62533524  0.06307624     0.06800
C569        C  0.41586401  0.53111184  0.23386166    -0.08000
C570        C  0.45072090  0.55334083  0.24938981    -0.01900
C571        C  0.47356591  0.58776324  0.23337965    -0.08000
C572        C  0.46135440  0.60050890  0.20088140     0.13000
C573        C  0.42600504  0.57797614  0.18472879     0.00200
C574        C  0.40325933  0.54298654  0.20107128     0.12800
C575        C  0.36837574  0.52101531  0.18457494    -0.09800
C576        C  0.35592322  0.53331304  0.15275292    -0.09800
C577        C  0.37774639  0.56815892  0.13654033     0.12800
C578        C  0.41311741  0.59068987  0.15267161     0.00200
C579        C  0.48327870  0.63526291  0.18443133    -0.09900
C580        C  0.47073850  0.64765774  0.15278154    -0.09900
C581        C  0.43573489  0.62581981  0.13656195     0.13000
C582        C  0.42277144  0.63800764  0.10440099    -0.08000
C583        C  0.38793442  0.61577308  0.08893161    -0.01900
C584        C  0.36534812  0.58112673  0.10445893    -0.08000
H585        H  0.34832055  0.99483349  0.19518589     0.10200
H586        H  0.32890226  0.51535874  0.14111840     0.10200
H587        H  0.00961560  0.65345115  0.19622771     0.10400
H588        H  0.48869637  0.67464507  0.14121196     0.10400
H589        H  0.45974787  0.54417944  0.27518315     0.06800
H590        H  0.37864404  0.62520176  0.06359834     0.06800
C591        C  0.11358838  0.95716147  0.33900381     0.05100
C592        C  0.08765131  0.95071355  0.30868183     0.05100
C593        C  0.05340115  0.91892737  0.30991856     0.05100
C594        C  0.04417289  0.89362906  0.34161745     0.05100
C595        C  0.07092432  0.89877425  0.37058306     0.05100
C596        C  0.10536062  0.93054389  0.36909889     0.05100
C597        C  0.32907584  0.94935040  0.33134865     0.05100
C598        C  0.34822508  0.94243809  0.30107513     0.05100
C599        C  0.34839259  0.90938157  0.30041792     0.05100
C600        C  0.33114076  0.88369353  0.33157465     0.05100
C601        C  0.31303573  0.89122620  0.36267757     0.05100
C602        C  0.31119026  0.92347210  0.36218333     0.05100
C603        C  0.46921562  0.88868883  0.23176231    -0.08000
C604        C  0.44504706  0.89953595  0.24519243    -0.01900
C605        C  0.41078119  0.88581727  0.22790763    -0.08000
C606        C  0.40040655  0.86110219  0.19544857     0.13000
C607        C  0.42490017  0.84984609  0.18149758     0.00200
C608        C  0.45941035  0.86348790  0.19998776     0.12800
C609        C  0.48295617  0.85137022  0.18648647    -0.09800
C610        C  0.47287677  0.82643195  0.15508394    -0.09800
C611        C  0.43896239  0.81284351  0.13597262     0.12800
C612        C  0.41474554  0.82466036  0.14933615     0.00200
C613        C  0.36633025  0.84723333  0.17675039    -0.09900
C614        C  0.35672201  0.82324874  0.14445875    -0.09900
C615        C  0.38057961  0.81172651  0.13024161     0.13000
C616        C  0.37133628  0.78784753  0.09719737    -0.08000
C617        C  0.39517127  0.77612998  0.08449673    -0.01900
C618        C  0.42864996  0.78805269  0.10356549    -0.08000
H619        H  0.01040231  0.86159493  0.19969119     0.10200
H620        H  0.49197048  0.81798316  0.14575927     0.10200
H621        H  0.34701214  0.85519447  0.18667506     0.10400
H622        H  0.33028844  0.81365991  0.13080625     0.10400
H623        H  0.45258497  0.91805883  0.27053963     0.06800
H624        H  0.38790628  0.75809446  0.05875464     0.06800
C625        C  0.28623258  0.50241866  0.00201561     0.05100
C626        C  0.27851520  0.52168330  0.03130653     0.05100
C627        C  0.24685226  0.52439988  0.02772095     0.05100
C628        C  0.22362996  0.50952792  0.99394640     0.05100
C629        C  0.22499328  0.97983867  0.97098882     0.05100
C630        C  0.25902078  0.98172771  0.97104657     0.05100
C631        C  0.28652472  0.78458596  0.99464361     0.05100
C632        C  0.28295189  0.75957249  0.02505089     0.05100
C633        C  0.25148984  0.72513917  0.02721237     0.05100
C634        C  0.22385364  0.71464421  0.99819246     0.05100
C635        C  0.22698501  0.73954413  0.96796965     0.05100
C636        C  0.25824548  0.77440421  0.96596920     0.05100
C637        C  0.00123090  0.71452283  0.00070553     0.05100
C638        C  0.48532378  0.72439539  0.03281939     0.05100
C639        C  0.48894344  0.75918212  0.03444935     0.05100
C640        C  0.00951085  0.78496284  0.00388662     0.05100
C641        C  0.02471393  0.77509204  0.97182916     0.05100
C642        C  0.02097582  0.74023656  0.97030640     0.05100
C643        C  0.16964395  0.61632989  0.67242129     0.05100
C644        C  0.18846454  0.61160110  0.64007021     0.05100
C645        C  0.18902506  0.57890281  0.63566845     0.05100
C646        C  0.16958938  0.54973634  0.66285067     0.05100
C647        C  0.14856764  0.55356996  0.69352430     0.05100
C648        C  0.14908160  0.58677527  0.69872974     0.05100
C649        C  0.07913442  0.70994759  0.89906052    -0.08000
C650        C  0.11353416  0.72160745  0.91544346    -0.01900
C651        C  0.13573206  0.70863165  0.90090567    -0.08000
C652        C  0.12355562  0.68318627  0.86921226     0.13000
C653        C  0.08880160  0.67132099  0.85199099     0.00200
C654        C  0.06645576  0.68482595  0.86683737     0.12800
C655        C  0.03217867  0.67278415  0.84913772    -0.09800
C656        C  0.02031602  0.64836297  0.81702531    -0.09800
C657        C  0.04205313  0.63465058  0.80193161     0.12800
C658        C  0.07639052  0.64585841  0.81995195     0.00200
C659        C  0.14515149  0.66922705  0.85442701    -0.09900
C660        C  0.13294564  0.64420752  0.82308743    -0.09900
C661        C  0.09871857  0.63226394  0.80536995     0.13000
C662        C  0.08644686  0.60754508  0.77294809    -0.08000
C663        C  0.05277591  0.59693761  0.75520929    -0.01900
C664        C  0.03070635  0.61037560  0.76897015    -0.08000
H665        H  0.01442270  0.68248059  0.85974432     0.10200
H666        H  0.49359375  0.63970445  0.80462978     0.10200
H667        H  0.17176960  0.67760792  0.86693728     0.10400
H668        H  0.15063739  0.63432902  0.81278310     0.10400
H669        H  0.12289108  0.74052626  0.94050575     0.06800
H670        H  0.04423873  0.57902475  0.72925679     0.06800
C671        C  0.08220869  0.86089001  0.89793277    -0.08000
C672        C  0.11722812  0.88338548  0.91264597    -0.01900
C673        C  0.13919197  0.91809919  0.89710805    -0.08000
C674        C  0.12629329  0.93067361  0.86508794     0.13000
C675        C  0.09045863  0.90814396  0.85015593     0.00200
C676        C  0.06818449  0.87315033  0.86687104     0.12800
C677        C  0.03249222  0.85158682  0.85239341    -0.09800
C678        C  0.01885716  0.86416623  0.82201985    -0.09800
C679        C  0.04050291  0.89865787  0.80479462     0.12800
C680        C  0.07672478  0.92077293  0.81882814     0.00200
C681        C  0.14802244  0.96508401  0.84779233    -0.09900
C682        C  0.13499682  0.97697353  0.81606444    -0.09900
C683        C  0.09942950  0.95526025  0.80118262     0.13000
C684        C  0.08600178  0.96692084  0.76889036    -0.08000
C685        C  0.05007974  0.94524579  0.75588994    -0.01900
C686        C  0.02713207  0.91149994  0.77354394    -0.08000
H687        H  0.01476135  0.82477821  0.86454899     0.10200
H688        H  0.49039771  0.84620968  0.81221968     0.10200
H689        H  0.17547106  0.98289755  0.85837022     0.10400
H690        H  0.15291264  0.50342830  0.79623313     0.10400
H691        H  0.12712010  0.87414633  0.93760823     0.06800
H692        H  0.04018331  0.95426902  0.73075883     0.06800
C693        C  0.38314874  0.55105674  0.67007169     0.05100
C694        C  0.41099433  0.55677086  0.69783342     0.05100
C695        C  0.44578273  0.58770930  0.69391048     0.05100
C696        C  0.45316150  0.61264523  0.66208278     0.05100
C697        C  0.42570280  0.60599465  0.63349472     0.05100
C698        C  0.39098533  0.57530962  0.63755734     0.05100
C699        C  0.38413058  0.83424362  0.66339177     0.05100
C700        C  0.40801579  0.85264195  0.69582032     0.05100
C701        C  0.43926686  0.84956063  0.70236700     0.05100
C702        C  0.44668269  0.82745475  0.67660251     0.05100
C703        C  0.42283075  0.80910387  0.64417000     0.05100
C704        C  0.39191345  0.81260506  0.63738545     0.05100
C705        C  0.28213087  0.91885311  0.89873945    -0.08000
C706        C  0.26840039  0.88328125  0.91214753    -0.01900
C707        C  0.27933056  0.86047944  0.89459672    -0.08000
C708        C  0.30441429  0.87340486  0.86221517     0.13000
C709        C  0.31823303  0.90954930  0.84816459     0.00200
C710        C  0.30700620  0.93236700  0.86654213     0.12800
C711        C  0.32121088  0.96820148  0.85258901    -0.09800
C712        C  0.34577981  0.98132317  0.82078530    -0.09800
C713        C  0.35731464  0.95922267  0.80204433     0.12800
C714        C  0.34371746  0.92312027  0.81610564     0.00200
C715        C  0.31636816  0.85147834  0.84379695    -0.09900
C716        C  0.34123446  0.86471576  0.81209201    -0.09900
C717        C  0.35519863  0.90043814  0.79780106     0.13000
C718        C  0.38010925  0.91410009  0.76545269    -0.08000
C719        C  0.39302619  0.94950015  0.75168473    -0.01900
C720        C  0.38180649  0.97207629  0.76931415    -0.08000
H721        H  0.31326205  0.98639188  0.86602109     0.10200
H722        H  0.36053616  0.50844468  0.81163540     0.10200
H723        H  0.30642814  0.82382428  0.85367480     0.10400
H724        H  0.34946298  0.84667745  0.79883492     0.10400
H725        H  0.24998115  0.87365467  0.93767832     0.06800
H726        H  0.41129887  0.95928114  0.72603722     0.06800
C727        C  0.04682023  0.80904896  0.43810697    -0.08000
C728        C  0.05965733  0.78805721  0.41951276    -0.01900
C729        C  0.04891072  0.75285729  0.43279289    -0.08000
C730        C  0.02450888  0.73781074  0.46540857     0.13000
C731        C  0.01147069  0.75879729  0.48476183     0.00200
C732        C  0.02282747  0.79464652  0.47128297     0.12800
C733        C  0.00969113  0.81496138  0.49117810    -0.09800
C734        C  0.48421841  0.79951240  0.52255350    -0.09800
C735        C  0.47304708  0.76417911  0.53639538     0.12800
C736        C  0.48578408  0.74321870  0.51639466     0.00200
C737        C  0.01258203  0.70221832  0.47896169    -0.09900
C738        C  0.48789594  0.68723670  0.50980155    -0.09900
C739        C  0.47444540  0.70729816  0.52955756     0.13000
C740        C  0.45032213  0.69265499  0.56250295    -0.08000
C741        C  0.43848123  0.71384114  0.58231410    -0.01900
C742        C  0.44978085  0.74930641  0.56998950    -0.08000
H743        H  0.01781740  0.84238078  0.48183908     0.10200
H744        H  0.47473386  0.81613341  0.53686848     0.10200
H745        H  0.02193080  0.68537955  0.46491940     0.10400
H746        H  0.47982689  0.65979562  0.51900489     0.10400
H747        H  0.07764945  0.79897265  0.39374958     0.06800
H748        H  0.42101748  0.70291166  0.60850654     0.06800
C749        C  0.19666632  0.75012878  0.43959287    -0.08000
C750        C  0.21951385  0.78438900  0.42340408    -0.01900
C751        C  0.25491265  0.80594604  0.43750700    -0.08000
C752        C  0.26821018  0.79339644  0.46898180     0.13000
C753        C  0.24514757  0.75872907  0.48607490     0.00200
C754        C  0.20909491  0.73697651  0.47145853     0.12800
C755        C  0.18672257  0.70271360  0.48883640    -0.09800
C756        C  0.19939816  0.69019660  0.52031695    -0.09800
C757        C  0.23511389  0.71122760  0.53501312     0.12800
C758        C  0.25834791  0.74560986  0.51739604     0.00200
C759        C  0.30396097  0.81435535  0.48348465    -0.09900
C760        C  0.31692711  0.80146163  0.51418466    -0.09900
C761        C  0.29461250  0.76714737  0.53146952     0.13000
C762        C  0.30738857  0.75391445  0.56282882    -0.08000
C763        C  0.28414608  0.72021642  0.58019005    -0.01900
C764        C  0.24826871  0.69905549  0.56708933    -0.08000
H765        H  0.15910313  0.68546137  0.47841949     0.10200
H766        H  0.18103522  0.66374740  0.53291625     0.10200
H767        H  0.32222873  0.84094997  0.47115392     0.10400
H768        H  0.34467746  0.81862112  0.52424277     0.10400
H769        H  0.21000838  0.79392460  0.39835286     0.06800
H770        H  0.29375488  0.71088829  0.60532535     0.06800
C771        C  0.25075796  0.95088801  0.43445946    -0.08000
C772        C  0.21574628  0.93911968  0.41987851    -0.01900
C773        C  0.19430957  0.95257613  0.43564523    -0.08000
C774        C  0.20768676  0.97840989  0.46697487     0.13000
C775        C  0.24310759  0.99058611  0.48219528     0.00200
C776        C  0.26477878  0.97672603  0.46601237     0.12800
C777        C  0.29984023  0.98925675  0.48165915    -0.09800
C778        C  0.31425157  0.51571583  0.51273946    -0.09800
C779        C  0.29413602  0.53083238  0.52878082     0.12800
C780        C  0.25985871  0.52132487  0.51159811     0.00200
C781        C  0.18671069  0.99260060  0.48319495    -0.09900
C782        C  0.20500527  0.52614061  0.51034761    -0.09900
C783        C  0.23914382  0.53628485  0.52735712     0.13000
C784        C  0.25283958  0.56035844  0.56036218    -0.08000
C785        C  0.28646398  0.56945166  0.57701601    -0.01900
C786        C  0.30694556  0.55471881  0.56204998    -0.08000
H787        H  0.31711358  0.97931945  0.47012373     0.10200
H788        H  0.34065160  0.52267018  0.52487019     0.10200
H789        H  0.15952136  0.98388199  0.47226771     0.10400
H790        H  0.18860716  0.53724886  0.52147254     0.10400
H791        H  0.20540672  0.91998497  0.39504258     0.06800
H792        H  0.29602029  0.58687826  0.60337167     0.06800
O793        O  0.44951030  0.51072102  0.97708796    -0.85500
C794        C  0.03263139  0.56835251  0.05811937     0.90500
Mg795      Mg  0.41451173  0.96461114  0.97080339     1.58100
O796        O  0.06134091  0.54444020  0.96946218    -0.85200
O797        O  0.99165288  0.54469011  0.93348549    -0.72500
C798        C  0.49111589  0.86549080  0.00770286     0.95600
O799        O  0.44750306  0.49973372  0.07349602    -0.72400
O800        O  0.46250056  0.86710185  0.01381396    -0.79900
Mg801      Mg  0.45906032  0.54534400  0.02864083     1.58000
C802        C  0.12729382  0.49639653  0.98326337     0.95500
O803        O  0.46803584  0.59526384  0.99226532    -0.78100
H804        H  0.06719540  0.54690968  0.90964615    -0.03500
C805        C  0.03227574  0.96359010  0.05805035     0.90500
O806        O  0.44844647  0.95016186  0.92871180    -0.72600
O807        O  0.01600457  0.56172176  0.02587271    -0.85400
O808        O  0.12986525  0.52703907  0.99133179    -0.78200
C809        C  0.12771741  0.63100446  0.00578136     0.95600
C810        C  0.99461767  0.62311760  0.97623127     0.95500
Mg811      Mg  0.03919870  0.95004139  0.96901852     1.58000
O812        O  0.02197880  0.89356040  0.99766174    -0.78100
O813        O  0.05824243  0.00200380  0.93181759    -0.72400
O814        O  0.09637299  0.62672862  0.99824334    -0.78200
O815        O  0.39918406  0.52774452  0.03046483    -0.79900
O816        O  0.39943739  0.87648362  0.98279490    -0.78200
C817        C  0.06094966  0.53066820  0.93667525     0.89900
O818        O  0.48342687  0.93838428  0.96701054    -0.85400
O819        O  0.04511727  0.97822239  0.02536200    -0.85500
O820        O  0.49837557  0.94083250  0.06280980    -0.72600
Mg821      Mg  0.04307195  0.58328453  0.96928368     1.58000
O822        O  0.13294886  0.60420894  0.01146415    -0.79900
H823        H  0.43977331  0.50826350  0.91792761    -0.03700
O824        O  0.43788383  0.95491586  0.02370929    -0.85200
H825        H  0.42525365  0.94407538  0.08196135    -0.03500
H826        H  0.48241900  0.93348684  0.90708541    -0.03700
C827        C  0.43486255  0.96405965  0.05810885     0.89900
C828        C  0.45915519  0.52102616  0.94211032     0.90500
C829        C  0.47173794  0.93995908  0.93336913     0.90500
H830        H  0.04978161  0.97143855  0.08421258    -0.03600
O831        O  0.05934589  0.56304542  0.06269734    -0.72700
Mg832      Mg  0.45038222  0.91218847  0.01911321     1.58000
H833        H  0.02391955  0.57836941  0.08317299    -0.03600
C834        C  0.37079690  0.49653906  0.02919780     0.95500
O835        O  0.36929343  0.90537091  0.96769608    -0.79900
C836        C  0.37098868  0.87643797  0.97092821     0.95600
O837        O  0.02483699  0.62503052  0.96855100    -0.79900
Mg838      Mg  0.09096582  0.54416094  0.02227000     1.58200
O839        O  0.37612548  0.97734268  0.00642271    -0.78200
O840        O  0.09828941  0.96403802  0.97152176    -0.79900
O841        O  0.28603591  0.68177293  0.30799561    -0.85500
C842        C  0.36443661  0.73356071  0.39325002     0.90500
Mg843      Mg  0.24554027  0.62522111  0.31557236     1.58100
O844        O  0.39416116  0.71294568  0.30317187    -0.85200
O845        O  0.32829021  0.71900525  0.26658697    -0.72500
C846        C  0.33724425  0.54204603  0.35996394     0.95600
O847        O  0.27962530  0.66932552  0.40365030    -0.72400
O848        O  0.30765013  0.54089420  0.36910961    -0.79900
Mg849      Mg  0.29312123  0.71581220  0.35872647     1.58000
C850        C  0.46171069  0.66774223  0.30881709     0.95500
O851        O  0.30409920  0.76571796  0.32086319    -0.78100
H852        H  0.40038836  0.71736602  0.24340531    -0.03500
C853        C  0.37355764  0.64218183  0.39610353     0.90500
O854        O  0.27714536  0.60802465  0.27353054    -0.72600
O855        O  0.35033837  0.73200972  0.36015363    -0.85400
O856        O  0.46020826  0.69536664  0.32075822    -0.78200
C857        C  0.46410632  0.79522326  0.34340714     0.95600
C858        C  0.33192293  0.79518796  0.30984232     0.95500
Mg859      Mg  0.37397476  0.62017254  0.30821830     1.58000
O860        O  0.36360603  0.56943010  0.34317442    -0.78100
O861        O  0.38637760  0.66751932  0.26541917    -0.72400
O862        O  0.43537563  0.79638121  0.33433345    -0.78200
O863        O  0.23294081  0.69864343  0.35568089    -0.79900
O864        O  0.23841122  0.54131777  0.33746119    -0.78200
C865        C  0.39431714  0.70032773  0.26974460     0.89900
O866        O  0.31790935  0.60483543  0.31102861    -0.85400
O867        O  0.38207483  0.65283357  0.36110034    -0.85500
O868        O  0.34117258  0.61908269  0.40546987    -0.72600
Mg869      Mg  0.37964335  0.75484153  0.30466905     1.58000
O870        O  0.46372750  0.76573904  0.34977243    -0.79900
H871        H  0.27703436  0.68209090  0.24889206    -0.03700
O872        O  0.27469558  0.62398189  0.36782009    -0.85200
H873        H  0.26647875  0.62019170  0.42735163    -0.03500
H874        H  0.31145315  0.59148800  0.25268735    -0.03700
C875        C  0.27305584  0.63680934  0.40059072     0.89900
C876        C  0.29601766  0.69373013  0.27362269     0.90500
C877        C  0.30244799  0.60063730  0.27826904     0.90500
H878        H  0.39383357  0.65414355  0.41959234    -0.03600
O879        O  0.38895262  0.72493474  0.39756046    -0.72700
Mg880      Mg  0.29071099  0.58334266  0.36793667     1.58000
H881        H  0.35499058  0.74156226  0.41941532    -0.03600
C882        C  0.20495976  0.66709821  0.35605201     1.02100
O883        O  0.20369121  0.56562732  0.32369478    -0.79900
C884        C  0.20781677  0.53821344  0.32894975     0.95600
O885        O  0.36323056  0.79833325  0.30600407    -0.79900
Mg886      Mg  0.42149173  0.70835287  0.35563977     1.58200
O887        O  0.20709178  0.63845991  0.35175837    -0.78200
O888        O  0.43357744  0.63662549  0.30519592    -0.79900
O889        O  0.12324079  0.85266562  0.63963496    -0.85500
C890        C  0.20359790  0.89905578  0.72416444     0.90500
Mg891      Mg  0.07843155  0.79854057  0.64485597     1.58100
O892        O  0.22803351  0.87228749  0.63450791    -0.85200
O893        O  0.16634326  0.88580449  0.59701545    -0.72500
C894        C  0.14973717  0.69536993  0.68522237     0.95600
O895        O  0.11653238  0.83812520  0.73546129    -0.72400
O896        O  0.12151077  0.69771163  0.69165028    -0.79900
Mg897      Mg  0.13432209  0.88632898  0.69226299     1.58000
C898        C  0.28533734  0.81474238  0.64941614     0.95500
O899        O  0.14973296  0.93799056  0.65782221    -0.78100
H900        H  0.23638572  0.87563392  0.57503185    -0.03500
C901        C  0.19750086  0.79850138  0.72777197     0.90500
O902        O  0.10638101  0.77692205  0.60272181    -0.72600
O903        O  0.18925361  0.89701560  0.69117430    -0.85400
O904        O  0.28817396  0.84574293  0.65480426    -0.78200
C905        C  0.30197938  0.95254303  0.67321733     0.95600
C906        C  0.17710489  0.96511881  0.64229396     0.95500
Mg907      Mg  0.19756314  0.77643150  0.64148192     1.58000
O908        O  0.18016016  0.72301217  0.67608968    -0.78100
O909        O  0.21699495  0.82504289  0.59814479    -0.72400
O910        O  0.27419025  0.95520695  0.66386036    -0.78200
O911        O  0.07706332  0.87638159  0.69104075    -0.79900
O912        O  0.05813112  0.70966551  0.66483867    -0.78200
C913        C  0.22781986  0.85867257  0.60160951     0.89900
O914        O  0.14292895  0.76721175  0.64037578    -0.85400
O915        O  0.20801573  0.81048198  0.69355979    -0.85500
O916        O  0.16431192  0.77592463  0.73482555    -0.72600
Mg917      Mg  0.21813572  0.91762044  0.63470824     1.58000
O918        O  0.29994999  0.92222036  0.68049015    -0.79900
H919        H  0.11352933  0.85377559  0.58088378    -0.03700
O920        O  0.10379792  0.79118151  0.69776277    -0.85200
H921        H  0.09708783  0.78719611  0.75748764    -0.03500
H922        H  0.13681282  0.75585352  0.58150846    -0.03700
C923        C  0.10503431  0.80446507  0.73116754     0.89900
C924        C  0.13324752  0.86384689  0.60506292     0.90500
C925        C  0.12897905  0.76587437  0.60730718     0.90500
H926        H  0.21681682  0.80795930  0.75234661    -0.03600
O927        O  0.22571151  0.88750435  0.72922207    -0.72700
Mg928      Mg  0.11285607  0.74578703  0.69557785     1.58000
H929        H  0.19623984  0.90986229  0.74963836    -0.03600
C930        C  0.04639648  0.84796383  0.68636851     0.95500
O931        O  0.03131175  0.74205307  0.65124624    -0.79900
C932        C  0.02997617  0.71191635  0.65687619     0.95600
O933        O  0.20646630  0.96506306  0.63423488    -0.79900
Mg934      Mg  0.25311003  0.86515781  0.68777905     1.58200
O935        O  0.04339605  0.81728135  0.67851041    -0.78200
O936        O  0.25473037  0.78605580  0.64534538    -0.79900
C937        C  0.47896010  0.82262044  0.68302963    -0.13600
C938        C  0.01379631  0.85187843  0.68678714    -0.28800
H939        H  0.47503655  0.79543072  0.68020822     0.15400
H940        H  0.01843665  0.87938639  0.68639584     0.16000
C941        C  0.35184318  0.83910272  0.65651513    -0.13600
C942        C  0.31804424  0.81094706  0.65079063    -0.28800
H943        H  0.35569222  0.86625030  0.65948338     0.15400
H944        H  0.31355502  0.78348421  0.65117288     0.16000
C945        C  0.39132878  0.89197429  0.74376902    -0.10400
C946        C  0.39978115  0.87417214  0.72299568    -0.12000
C947        C  0.34245770  0.77578673  0.58167763    -0.10400
C948        C  0.36752684  0.79328465  0.60424065    -0.12000
C949        C  0.43891557  0.77037698  0.59433722    -0.10400
C950        C  0.43102991  0.78776199  0.61656788    -0.12000
C951        C  0.33841399  0.98510145  0.67369174    -0.13600
C952        C  0.34541892  0.52001492  0.67428020    -0.28800
H953        H  0.36139196  0.98059782  0.67593325     0.15400
H954        H  0.32286138  0.52510497  0.67091532     0.16000
C955        C  0.48996506  0.64540021  0.65888523    -0.13600
C956        C  0.99415197  0.67892847  0.65630359    -0.28800
H957        H  0.51357750  0.64208679  0.66284190     0.15400
H958        H  0.97057273  0.68255593  0.65550911     0.16000
C959        C  0.39317865  0.00666926  0.75000968    -0.10400
C960        C  0.40429069  0.53009118  0.72917941    -0.12000
C961        C  0.33894701  0.56206230  0.58461804    -0.10400
C962        C  0.36330969  0.56821959  0.60764281    -0.12000
C963        C  0.43257583  0.63176231  0.60116094    -0.10400
C964        C  0.43980556  0.65749989  0.57978198    -0.12000
C965        C  0.99158897  0.88929948  0.75546482    -0.10400
C966        C  0.46470425  0.87027230  0.73435540    -0.12000
C967        C  0.47386346  0.59455064  0.72327738    -0.10400
C968        C  0.99820914  0.60094765  0.74609307    -0.12000
C969        C  0.17396543  0.65319208  0.67913736    -0.13600
C970        C  0.14586732  0.65884337  0.68545207    -0.28800
H971        H  0.20095543  0.67654962  0.67512636     0.15400
H972        H  0.11839782  0.63593067  0.68651693     0.16000
C973        C  0.17445553  0.99793862  0.63575687    -0.13600
C974        C  0.17371303  0.51663844  0.66342075    -0.28800
H975        H  0.17022683  0.00420906  0.60531059     0.15400
H976        H  0.17412451  0.50568112  0.69292348     0.16000
C977        C  0.10897825  0.99968200  0.74640401    -0.10400
C978        C  0.12601660  0.52302912  0.71968781    -0.12000
C979        C  0.12827237  0.59045422  0.73098418    -0.10400
C980        C  0.10948556  0.59624077  0.75343021    -0.12000
C981        C  0.21200119  0.57663177  0.60513290    -0.10400
C982        C  0.23097727  0.57174516  0.58210134    -0.12000
C983        C  0.20802602  0.64090203  0.61152884    -0.10400
C984        C  0.22531155  0.66636745  0.58950475    -0.12000
C985        C  0.99170080  0.65590002  0.97122075    -0.13600
C986        C  0.99999777  0.67874976  0.00255776    -0.28800
H987        H  0.98448368  0.66199233  0.94203327     0.15400
H988        H  0.50665329  0.67154109  0.03208777     0.16000
C989        C  0.01566697  0.82281810  0.00558260    -0.13600
C990        C  0.98784476  0.82920032  0.00831020    -0.28800
H991        H  0.54254315  0.84549461  0.00161977     0.15400
H992        H  0.96028265  0.80636101  0.00974730     0.16000
C993        C  0.04417726  0.80135179  0.94050788    -0.10400
C994        C  0.06066797  0.82679654  0.91833040    -0.12000
C995        C  0.04019661  0.73189020  0.93985216    -0.10400
C996        C  0.05703271  0.72260580  0.91841913    -0.12000
C997        C  0.15854248  0.66864868  0.00616858    -0.13600
C998        C  0.19279883  0.67656642  0.99888984    -0.28800
H999        H  0.15265494  0.69062409  0.00962780     0.15400
H1000       H  0.19896065  0.65475495  0.99576102     0.16000
C1001       C  0.33839077  0.84104065  0.96431758    -0.13600
C1002       C  0.31842475  0.82228703  0.99632514    -0.28800
H1003       H  0.33282096  0.82931943  0.93437233     0.15400
H1004       H  0.32707320  0.83447918  0.02598747     0.16000
C1005       C  0.26736724  0.82581326  0.91404354    -0.10400
C1006       C  0.26083594  0.80047103  0.93584189    -0.12000
C1007       C  0.19714516  0.72977348  0.94040916    -0.10400
C1008       C  0.17008994  0.72067152  0.92077955    -0.12000
C1009       C  0.32184100  0.50341640  0.00174459    -0.13600
C1010       C  0.33522224  0.49400450  0.03330499    -0.28800
H1011       H  0.33434271  0.01083836  0.96753938     0.15400
H1012       H  0.31976654  0.48361043  0.06093227     0.16000
C1013       C  0.19348769  0.51781097  0.98822451    -0.13600
C1014       C  0.15920575  0.49150126  0.98207746    -0.28800
H1015       H  0.19910668  0.54537491  0.99337362     0.15400
H1016       H  0.17509154  0.00562469  0.94320054     0.16000
C1017       C  0.19813240  0.95845144  0.94049185    -0.10400
C1018       C  0.17311328  0.94079907  0.91786759    -0.12000
C1019       C  0.27244654  0.94170374  0.92099987    -0.10400
C1020       C  0.26602040  0.96059529  0.94227390    -0.12000
C1021       C  0.47049517  0.76777490  0.06582028    -0.10400
C1022       C  0.45259628  0.77641867  0.08647701    -0.12000
C1023       C  0.31260886  0.76855002  0.05282767    -0.10400
C1024       C  0.33861920  0.77662149  0.07402589    -0.12000
C1025       C  0.32628592  0.98289461  0.32845071    -0.13600
C1026       C  0.33972142  0.50920095  0.36513113    -0.28800
H1027       H  0.32037594  0.99001541  0.29902126     0.15400
H1028       H  0.34515513  0.50211273  0.39472327     0.16000
C1029       C  0.32785150  0.82721979  0.30375113    -0.13600
C1030       C  0.33466146  0.85041974  0.33441523    -0.28800
H1031       H  0.31809254  0.83100890  0.27492998     0.15400
H1032       H  0.34194141  0.84415707  0.36355711     0.16000
C1033       C  0.28971687  0.92956655  0.39208206    -0.10400
C1034       C  0.27226722  0.93804335  0.41374529    -0.12000
C1035       C  0.29434873  0.86442918  0.39373875    -0.10400
C1036       C  0.27747506  0.83928441  0.41617486    -0.12000
C1037       C  0.36861796  0.90293306  0.26951042    -0.10400
C1038       C  0.38644012  0.89558334  0.24725565    -0.12000
C1039       C  0.14840875  0.99261301  0.34170710    -0.13600
C1040       C  0.17628850  0.50131917  0.32724218    -0.28800
H1041       H  0.15617997  0.00547142  0.37113915     0.15400
H1042       H  0.18100016  0.47854564  0.32408631     0.16000
C1043       C  0.00633496  0.86193512  0.34351661    -0.13600
C1044       C  0.50014834  0.82803531  0.34478772    -0.28800
H1045       H  0.98353128  0.86664833  0.34025250     0.15400
H1046       H  0.52325552  0.82361753  0.34492692     0.16000
C1047       C  0.06379548  0.87063187  0.40026742    -0.10400
C1048       C  0.05681038  0.84404445  0.42022812    -0.12000
C1049       C  0.13356333  0.93523894  0.39689831    -0.10400
C1050       C  0.15997688  0.94169593  0.41643747    -0.12000
C1051       C  0.50241404  0.90177999  0.25409552    -0.10400
C1052       C  0.02758374  0.91125286  0.27788085    -0.12000
C1053       C  0.44545106  0.67181853  0.08398959    -0.10400
C1054       C  0.46386186  0.69741272  0.06271035    -0.12000
C1055       C  0.33094310  0.55895748  0.08427226    -0.10400
C1056       C  0.30514212  0.54165978  0.06248315    -0.12000
C1057       C  0.37066889  0.97104839  0.27298316    -0.10400
C1058       C  0.39256281  0.49776197  0.25481610    -0.12000
C1059       C  0.24621962  0.70018797  0.05983018    -0.10400
C1060       C  0.23672376  0.67511069  0.08288692    -0.12000
C1061       C  0.23761688  0.54223993  0.05886949    -0.10400
C1062       C  0.22822251  0.55808531  0.08156981    -0.12000
C1063       C  0.09553287  0.97765680  0.27756364    -0.10400
C1064       C  0.09990860  0.49981692  0.24923673    -0.12000
C1065       C  0.16861873  0.66330571  0.35980143    -0.13600
C1066       C  0.15770213  0.68002097  0.33351654    -0.28800
H1067       H  0.14953905  0.64426614  0.38157175     0.15400
H1068       H  0.17581120  0.69638589  0.30943434     0.16000
C1069       C  0.49766514  0.67157614  0.30259828    -0.13600
C1070       C  0.01480316  0.66710307  0.33532192    -0.28800
H1071       H  0.50978094  0.67803719  0.27282641     0.15400
H1072       H  0.00196872  0.66165289  0.36480205     0.16000
C1073       C  0.07008122  0.71365984  0.39078954    -0.10400
C1074       C  0.06167257  0.73199294  0.41082056    -0.12000
C1075       C  0.13710068  0.71197668  0.39672189    -0.10400
C1076       C  0.16228278  0.72833024  0.41946780    -0.12000
C1077       C  0.50781118  0.61038245  0.25372198    -0.10400
C1078       C  0.03318557  0.62961164  0.27461003    -0.12000
C1079       C  0.11154086  0.61877536  0.25188311    -0.10400
C1080       C  0.10419280  0.63676665  0.27380902    -0.12000
C1081       C  0.62151454  0.17588695  0.33114782     0.05100
C1082       C  0.59594683  0.15612352  0.30052679     0.05100
C1083       C  0.56101445  0.15248699  0.30070214     0.05100
C1084       C  0.55235218  0.17112132  0.33004750     0.05100
C1085       C  0.57860718  0.19240095  0.35947228     0.05100
C1086       C  0.61236869  0.19352497  0.36114704     0.05100
C1087       C  0.62204899  0.09482992  0.22985888    -0.08000
C1088       C  0.60778391  0.06020439  0.24629056    -0.01900
C1089       C  0.61788360  0.03581675  0.23169408    -0.08000
C1090       C  0.64281689  0.04598674  0.19945586     0.13000
C1091       C  0.65734818  0.08115766  0.18232314     0.00200
C1092       C  0.64682125  0.10570105  0.19750881     0.12800
C1093       C  0.66155436  0.14043433  0.18023997    -0.09800
C1094       C  0.68629387  0.15093012  0.14857737    -0.09800
C1095       C  0.69734589  0.12714646  0.13324186     0.12800
C1096       C  0.68277677  0.09196540  0.15033220     0.00200
C1097       C  0.65383314  0.02218864  0.18413426    -0.09900
C1098       C  0.67846518  0.03264054  0.15235831    -0.09900
C1099       C  0.69320820  0.06738768  0.13507022     0.13000
C1100       C  0.71786899  0.07820483  0.10261454    -0.08000
C1101       C  0.73224102  0.11289165  0.08621611    -0.01900
C1102       C  0.72228450  0.13735306  0.10098096    -0.08000
H1103       H  0.65397834  0.15976595  0.19106269     0.10200
H1104       H  0.69684379  0.17795141  0.13631677     0.10200
H1105       H  0.63796932  0.49380895  0.18881008     0.10400
H1106       H  0.68598629  0.01327748  0.14150543     0.10400
H1107       H  0.58935093  0.05250379  0.27175479     0.06800
H1108       H  0.75050324  0.12052296  0.06060721     0.06800
C1109       C  0.91402368  0.03064540  0.23134368    -0.08000
C1110       C  0.94904395  0.05265609  0.24676090    -0.01900
C1111       C  0.97217989  0.08710470  0.23077763    -0.08000
C1112       C  0.95995464  0.10009151  0.19840058     0.13000
C1113       C  0.92443724  0.07784469  0.18243932     0.00200
C1114       C  0.90150796  0.04286095  0.19875831     0.12800
C1115       C  0.86651044  0.02117141  0.18239612    -0.09800
C1116       C  0.85413436  0.03366153  0.15069932    -0.09800
C1117       C  0.87611642  0.06846009  0.13446428     0.12800
C1118       C  0.91157332  0.09079878  0.15051571     0.00200
C1119       C  0.98202455  0.13479164  0.18182300    -0.09900
C1120       C  0.96944842  0.14746068  0.15038608    -0.09900
C1121       C  0.93428396  0.12594399  0.13442582     0.13000
C1122       C  0.92118155  0.13840961  0.10256810    -0.08000
C1123       C  0.88630926  0.11625143  0.08714248    -0.01900
C1124       C  0.86376848  0.08153054  0.10241439    -0.08000
H1125       H  0.84829171  0.49571976  0.19874868     0.10200
H1126       H  0.82701586  0.01588984  0.13920156     0.10200
H1127       H  0.51025143  0.15194089  0.19340868     0.10400
H1128       H  0.98750629  0.17439323  0.13873910     0.10400
H1129       H  0.95803567  0.04324299  0.27235376     0.06800
H1130       H  0.87695834  0.12579643  0.06196668     0.06800
C1131       C  0.61061533  0.45772601  0.33349145     0.05100
C1132       C  0.58335887  0.44835693  0.30416830     0.05100
C1133       C  0.55049747  0.41523330  0.30733701     0.05100
C1134       C  0.54476649  0.39116504  0.33966231     0.05100
C1135       C  0.57329184  0.39944019  0.36754887     0.05100
C1136       C  0.60618100  0.43279254  0.36436211     0.05100
C1137       C  0.83175492  0.45185534  0.33555583     0.05100
C1138       C  0.84925524  0.44400558  0.30428794     0.05100
C1139       C  0.84572920  0.40939403  0.30113479     0.05100
C1140       C  0.82592883  0.38262273  0.33067778     0.05100
C1141       C  0.81025758  0.39130734  0.36330857     0.05100
C1142       C  0.81165293  0.42509169  0.36480100     0.05100
C1143       C  0.96371418  0.38537167  0.23246434    -0.08000
C1144       C  0.94000491  0.39695802  0.24581935    -0.01900
C1145       C  0.90622613  0.38476427  0.22759887    -0.08000
C1146       C  0.89566880  0.36050050  0.19480202     0.13000
C1147       C  0.91956018  0.34853459  0.18080694     0.00200
C1148       C  0.95381651  0.36106908  0.19963413     0.12800
C1149       C  0.97695510  0.34870384  0.18537226    -0.09800
C1150       C  0.96658921  0.32437474  0.15322771    -0.09800
C1151       C  0.93261349  0.31134923  0.13438761     0.12800
C1152       C  0.90890296  0.32355981  0.14836024     0.00200
C1153       C  0.86176154  0.34759590  0.17597184    -0.09900
C1154       C  0.85145678  0.32339332  0.14393131    -0.09900
C1155       C  0.87458639  0.31101041  0.12974628     0.13000
C1156       C  0.86436931  0.28652971  0.09724448    -0.08000
C1157       C  0.88773351  0.27457921  0.08376979    -0.01900
C1158       C  0.92159091  0.28659458  0.10179948    -0.08000
H1159       H  0.50306770  0.35632045  0.19885505     0.10200
H1160       H  0.98535057  0.31568040  0.14335259     0.10200
H1161       H  0.84293578  0.35622063  0.18581918     0.10400
H1162       H  0.82505278  0.31434036  0.13044732     0.10400
H1163       H  0.94750312  0.41490956  0.27167783     0.06800
H1164       H  0.87976345  0.25625349  0.05821877     0.06800
C1165       C  0.78477939  0.00066528  0.00038768     0.05100
C1166       C  0.77630392  0.01829336  0.03102251     0.05100
C1167       C  0.74173423  0.01537615  0.03169946     0.05100
C1168       C  0.71578858  0.99596316  0.00131176     0.05100
C1169       C  0.73046329  0.48827350  0.96575721     0.05100
C1170       C  0.76199120  0.48537323  0.97018658     0.05100
C1171       C  0.77847814  0.28285960  0.99731153     0.05100
C1172       C  0.77541245  0.25720072  0.02646759     0.05100
C1173       C  0.74430517  0.22237265  0.02754819     0.05100
C1174       C  0.71599535  0.21281116  0.99919253     0.05100
C1175       C  0.71992678  0.23829133  0.96920573     0.05100
C1176       C  0.75110365  0.27302278  0.96810034     0.05100
C1177       C  0.49736032  0.21666621  0.99832221     0.05100
C1178       C  0.98084962  0.22542401  0.03039926     0.05100
C1179       C  0.98443109  0.26014749  0.03320576     0.05100
C1180       C  0.50599606  0.28722420  0.00429818     0.05100
C1181       C  0.52346669  0.27897598  0.97303146     0.05100
C1182       C  0.51878716  0.24373365  0.96960378     0.05100
C1183       C  0.66181504  0.11304243  0.66735167     0.05100
C1184       C  0.68190954  0.10776635  0.63671589     0.05100
C1185       C  0.68525633  0.07635815  0.63610114     0.05100
C1186       C  0.66765249  0.04910684  0.66587217     0.05100
C1187       C  0.64704479  0.05413346  0.69626957     0.05100
C1188       C  0.64465000  0.08612837  0.69744738     0.05100
C1189       C  0.57502250  0.21311850  0.89599831    -0.08000
C1190       C  0.60921348  0.22455140  0.91283741    -0.01900
C1191       C  0.63124396  0.21106381  0.89905583    -0.08000
C1192       C  0.61952447  0.18584554  0.86714898     0.13000
C1193       C  0.58486673  0.17386338  0.84981086     0.00200
C1194       C  0.56240405  0.18746129  0.86429692     0.12800
C1195       C  0.52797668  0.17485204  0.84687753    -0.09800
C1196       C  0.51602650  0.14975172  0.81550544    -0.09800
C1197       C  0.53798829  0.13617761  0.80067240     0.12800
C1198       C  0.57255207  0.14802547  0.81816011     0.00200
C1199       C  0.64140194  0.17213351  0.85234978    -0.09900
C1200       C  0.62947484  0.14712019  0.82089241    -0.09900
C1201       C  0.59511828  0.13465748  0.80339696     0.13000
C1202       C  0.58273275  0.10954355  0.77115506    -0.08000
C1203       C  0.54867433  0.09819098  0.75431382    -0.01900
C1204       C  0.52660837  0.11144681  0.76833717    -0.08000
H1205       H  0.51010446  0.18449792  0.85722527     0.10200
H1206       H  0.98942543  0.14086472  0.80221149     0.10200
H1207       H  0.66808023  0.18081416  0.86486717     0.10400
H1208       H  0.64734716  0.13750726  0.81044395     0.10400
H1209       H  0.61839593  0.24345682  0.93790979     0.06800
H1210       H  0.53982753  0.07991081  0.72866008     0.06800
C1211       C  0.58622707  0.36624758  0.90059061    -0.08000
C1212       C  0.62179451  0.38981590  0.91363147    -0.01900
C1213       C  0.64344508  0.42347786  0.89508931    -0.08000
C1214       C  0.62943869  0.43385699  0.86216122     0.13000
C1215       C  0.59329511  0.41029252  0.84871981     0.00200
C1216       C  0.57156998  0.37638017  0.86803455     0.12800
C1217       C  0.53568862  0.35371544  0.85453196    -0.09800
C1218       C  0.52135343  0.36415123  0.82273929    -0.09800
C1219       C  0.54234547  0.39762568  0.80317051     0.12800
C1220       C  0.57870121  0.42088134  0.81622830     0.00200
C1221       C  0.65046118  0.46730240  0.84258260    -0.09900
C1222       C  0.63643463  0.47735265  0.81024601    -0.09900
C1223       C  0.60064924  0.45456747  0.79658519     0.13000
C1224       C  0.58631588  0.46447414  0.76360726    -0.08000
C1225       C  0.55038949  0.44155497  0.75131315    -0.01900
C1226       C  0.52818621  0.40841463  0.77064247    -0.08000
H1227       H  0.51832028  0.32764575  0.86851391     0.10200
H1228       H  0.99277707  0.34570370  0.81412167     0.10200
H1229       H  0.67811147  0.48591503  0.85194839     0.10400
H1230       H  0.65193760  0.00346806  0.80330846     0.10400
H1231       H  0.63241405  0.38230327  0.93938956     0.06800
H1232       H  0.53982580  0.44922191  0.72563024     0.06800
C1233       C  0.88192855  0.05080260  0.66538347     0.05100
C1234       C  0.90875095  0.05737971  0.69472112     0.05100
C1235       C  0.94369720  0.08801719  0.69122940     0.05100
C1236       C  0.95261778  0.11248395  0.65869394     0.05100
C1237       C  0.92576609  0.10613335  0.62944485     0.05100
C1238       C  0.89069325  0.07551838  0.63303541     0.05100
C1239       C  0.88009814  0.32549481  0.66796816     0.05100
C1240       C  0.90563037  0.34551181  0.69865006     0.05100
C1241       C  0.93883666  0.34534602  0.70156938     0.05100
C1242       C  0.94673970  0.32508132  0.67348759     0.05100
C1243       C  0.92187892  0.30643234  0.64186399     0.05100
C1244       C  0.88887372  0.30676115  0.63883751     0.05100
C1245       C  0.78461969  0.42002016  0.90040392    -0.08000
C1246       C  0.76967290  0.38431196  0.91393043    -0.01900
C1247       C  0.77900031  0.36031079  0.89620007    -0.08000
C1248       C  0.80389923  0.37215604  0.86366613     0.13000
C1249       C  0.81913242  0.40842738  0.84951544     0.00200
C1250       C  0.80938147  0.43243879  0.86793916     0.12800
C1251       C  0.82481827  0.46827168  0.85363476    -0.09800
C1252       C  0.84913143  0.48026179  0.82152443    -0.09800
C1253       C  0.85928583  0.45702128  0.80282154     0.12800
C1254       C  0.84446497  0.42086829  0.81720951     0.00200
C1255       C  0.81425925  0.34897936  0.84516994    -0.09900
C1256       C  0.83913246  0.36117663  0.81345343    -0.09900
C1257       C  0.85459376  0.39702609  0.79905334     0.13000
C1258       C  0.87968933  0.40966131  0.76677311    -0.08000
C1259       C  0.89369328  0.44517810  0.75256504    -0.01900
C1260       C  0.88359313  0.46884199  0.76985315    -0.08000
H1261       H  0.81803751  0.48734347  0.86703692     0.10200
H1262       H  0.85398844  0.00807848  0.81019433     0.10200
H1263       H  0.80313301  0.32116002  0.85508317     0.10400
H1264       H  0.84614203  0.34220025  0.80024846     0.10400
H1265       H  0.75125465  0.37535856  0.93946384     0.06800
H1266       H  0.91200785  0.45423748  0.72695628     0.06800
C1267       C  0.55121288  0.31156371  0.43629109    -0.08000
C1268       C  0.56357102  0.29042013  0.41714089    -0.01900
C1269       C  0.55175946  0.25472867  0.42931574    -0.08000
C1270       C  0.52702894  0.23939051  0.46158276     0.13000
C1271       C  0.51416528  0.26036443  0.48126121     0.00200
C1272       C  0.52625392  0.29660108  0.46861388     0.12800
C1273       C  0.51284078  0.31670155  0.48844445    -0.09800
C1274       C  0.98764272  0.30114546  0.52085526    -0.09800
C1275       C  0.97547902  0.26528285  0.53352339     0.12800
C1276       C  0.98848350  0.24455965  0.51352658     0.00200
C1277       C  0.51464444  0.20352529  0.47449295    -0.09900
C1278       C  0.99014258  0.18840613  0.50601577    -0.09900
C1279       C  0.97664815  0.20832302  0.52597587     0.13000
C1280       C  0.95191227  0.19320317  0.55836295    -0.08000
C1281       C  0.93933584  0.21396916  0.57771861    -0.01900
C1282       C  0.95092507  0.24963483  0.56593839    -0.08000
H1283       H  0.52137984  0.34433935  0.47962530     0.10200
H1284       H  0.97817693  0.31769308  0.53538252     0.10200
H1285       H  0.52388769  0.18670122  0.46019948     0.10400
H1286       H  0.98172276  0.16075861  0.51468752     0.10400
H1287       H  0.58196494  0.30159976  0.39173216     0.06800
H1288       H  0.92109260  0.20256460  0.60323955     0.06800
C1289       C  0.69612618  0.25130482  0.43860777    -0.08000
C1290       C  0.71953270  0.28596510  0.42396209    -0.01900
C1291       C  0.75458332  0.30686691  0.43928673    -0.08000
C1292       C  0.76702392  0.29318241  0.47059052     0.13000
C1293       C  0.74322596  0.25813626  0.48636588     0.00200
C1294       C  0.70746977  0.23715889  0.47050865     0.12800
C1295       C  0.68427063  0.20260000  0.48667260    -0.09800
C1296       C  0.69587352  0.18887493  0.51792815    -0.09800
C1297       C  0.73134045  0.20892945  0.53359068     0.12800
C1298       C  0.75538828  0.24375560  0.51748108     0.00200
C1299       C  0.80251556  0.31323290  0.48619192    -0.09900
C1300       C  0.81448233  0.29907605  0.51676840    -0.09900
C1301       C  0.79139341  0.26435860  0.53278966     0.13000
C1302       C  0.80301903  0.24963147  0.56395275    -0.08000
C1303       C  0.77895185  0.21540267  0.57951785    -0.01900
C1304       C  0.74341140  0.19523625  0.56515698    -0.08000
H1305       H  0.65682170  0.18601856  0.47543490     0.10200
H1306       H  0.67687966  0.16219185  0.52951706     0.10200
H1307       H  0.82131163  0.34006013  0.47479551     0.10400
H1308       H  0.84204777  0.31551702  0.52772484     0.10400
H1309       H  0.71081753  0.29630254  0.39893383     0.06800
H1310       H  0.78763601  0.20479098  0.60428948     0.06800
C1311       C  0.75136742  0.45482666  0.43301901    -0.08000
C1312       C  0.71714135  0.44492706  0.41716453    -0.01900
C1313       C  0.69682120  0.46009615  0.43179573    -0.08000
C1314       C  0.71084294  0.48590318  0.46325179     0.13000
C1315       C  0.74551217  0.49604009  0.47976739     0.00200
C1316       C  0.76590379  0.48047199  0.46459696     0.12800
C1317       C  0.80023559  0.49098725  0.48137609    -0.09800
C1318       C  0.81292848  0.01384072  0.51245921    -0.09800
C1319       C  0.79173255  0.02764550  0.52896503     0.12800
C1320       C  0.75652109  0.01581931  0.51328996     0.00200
C1321       C  0.69119786  0.50182424  0.47862742    -0.09900
C1322       C  0.69966281  0.01690301  0.51402537    -0.09900
C1323       C  0.73467475  0.02936742  0.52972699     0.13000
C1324       C  0.74839266  0.05467763  0.56176949    -0.08000
C1325       C  0.78308730  0.06602020  0.57684232    -0.01900
C1326       C  0.80456256  0.05264732  0.56112963    -0.08000
H1327       H  0.81660643  0.47978344  0.47045871     0.10200
H1328       H  0.84000783  0.02243347  0.52367744     0.10200
H1329       H  0.66475229  0.49486149  0.46664398     0.10400
H1330       H  0.68228810  0.02665402  0.52573065     0.10400
H1331       H  0.70648408  0.42568753  0.39244790     0.06800
H1332       H  0.79299920  0.08448668  0.60231106     0.06800
O1333       O  0.95660729  0.02054559  0.97282723    -0.85500
C1334       C  0.53016788  0.05880486  0.06540513     0.90500
Mg1335     Mg  0.90977775  0.45367626  0.98539138     1.58100
O1336       O  0.56333087  0.04303234  0.97494336    -0.85200
O1337       O  0.50285403  0.05722813  0.93594659    -0.72500
C1338       C  0.00540529  0.37501399  0.03149987     0.95600
O1339       O  0.94425518  0.99659235  0.06595358    -0.72400
O1340       O  0.97504000  0.37240777  0.03990895    -0.79900
Mg1341     Mg  0.96312994  0.04889376  0.02921890     1.58000
C1342       C  0.62623200  0.99372195  0.97881165     0.95500
O1343       O  0.98070012  0.10607297  0.00114261    -0.78100
H1344       H  0.57629261  0.05401652  0.91677603    -0.03500
C1345       C  0.54064417  0.47734489  0.06488083     0.90500
O1346       O  0.94150594  0.43650552  0.94351726    -0.72600
O1347       O  0.51832182  0.06012954  0.03177926    -0.85400
O1348       O  0.62544140  0.02118057  0.99270965    -0.78200
C1349       C  0.63095537  0.12211777  0.02579769     0.95600
C1350       C  0.51134743  0.13355648  0.99150013     0.95500
Mg1351     Mg  0.53958034  0.45248871  0.97801713     1.58000
O1352       O  0.53089848  0.40297220  0.01370195    -0.78100
O1353       O  0.55213308  0.49800475  0.93275222    -0.72400
O1354       O  0.60232530  0.12199403  0.01459390    -0.78200
O1355       O  0.90399239  0.03478494  0.02773130    -0.79900
O1356       O  0.90480687  0.37129585  0.00823148    -0.78200
C1357       C  0.56664462  0.03400810  0.94060197     0.89900
O1358       O  0.98348377  0.43649431  0.98162855    -0.85400
O1359       O  0.55010906  0.48755977  0.02985672    -0.85500
O1360       O  0.00814173  0.45301226  0.07459105    -0.72600
Mg1361     Mg  0.55103273  0.08585536  0.97922073     1.58000
O1362       O  0.63244657  0.09313711  0.02975538    -0.79900
H1363       H  0.95152629  0.02697429  0.91399980    -0.03700
O1364       O  0.93932867  0.45325148  0.03786933    -0.85200
H1365       H  0.93367153  0.45091270  0.09772166    -0.03500
H1366       H  0.97705549  0.42107352  0.92392947    -0.03700
C1367       C  0.93943711  0.46699491  0.07062520     0.89900
C1368       C  0.96924081  0.03489984  0.93998788     0.90500
C1369       C  0.96769122  0.43056282  0.94888299     0.90500
H1370       H  0.56005166  0.49033485  0.08899114    -0.03600
O1371       O  0.55349503  0.04867288  0.07008187    -0.72700
Mg1372     Mg  0.95704021  0.41433542  0.03835971     1.58000
H1373       H  0.51958857  0.06543137  0.09166265    -0.03600
C1374       C  0.87542805  0.00443198  0.02101863     0.95500
O1375       O  0.86848597  0.39363488  0.99341944    -0.79900
C1376       C  0.87392084  0.36697582  0.99846712     0.95600
O1377       O  0.53930188  0.13105063  0.98434045    -0.79900
Mg1378     Mg  0.58707323  0.03393935  0.02792715     1.58200
O1379       O  0.87158705  0.46749111  0.02091346    -0.78200
O1380       O  0.59715136  0.46763578  0.97727322    -0.79900
O1381       O  0.79023033  0.18838266  0.30740721    -0.85500
C1382       C  0.86747294  0.23175281  0.39607875     0.90500
Mg1383     Mg  0.74793042  0.13208268  0.30850550     1.58100
O1384       O  0.89630001  0.21261325  0.30409292    -0.85200
O1385       O  0.83437240  0.22594709  0.26830495    -0.72500
C1386       C  0.83118520  0.03864653  0.35089320     0.95600
O1387       O  0.78042278  0.16833771  0.40139982    -0.72400
O1388       O  0.80095371  0.03727310  0.35717835    -0.79900
Mg1389     Mg  0.79799225  0.21899275  0.36206868     1.58000
C1390       C  0.96000319  0.16438137  0.30670414     0.95500
O1391       O  0.81423111  0.27448311  0.33155640    -0.78100
H1392       H  0.90432835  0.22014645  0.24472146    -0.03500
C1393       C  0.86936648  0.13713315  0.39218229     0.90500
O1394       O  0.78008070  0.11575216  0.26628739    -0.72600
O1395       O  0.85394175  0.23142088  0.36300458    -0.85400
O1396       O  0.95908530  0.19181435  0.32007467    -0.78200
C1397       C  0.96782039  0.29213101  0.34813628     0.95600
C1398       C  0.84434609  0.30260798  0.32216278     0.95500
Mg1399     Mg  0.87223798  0.11914549  0.30366959     1.58000
O1400       O  0.85897170  0.06678584  0.33723178    -0.78100
O1401       O  0.88768370  0.16869654  0.26329421    -0.72400
O1402       O  0.93913280  0.29358132  0.34062406    -0.78200
O1403       O  0.73855371  0.20488869  0.36045996    -0.79900
O1404       O  0.73298743  0.04344443  0.32621270    -0.78200
C1405       C  0.89684821  0.20158335  0.26984787     0.89900
O1406       O  0.81643847  0.10564749  0.30411837    -0.85400
O1407       O  0.88004185  0.14987184  0.35823865    -0.85500
O1408       O  0.83633376  0.11394336  0.39888761    -0.72600
Mg1409     Mg  0.88476336  0.25601732  0.30884042     1.58000
O1410       O  0.96727814  0.26235114  0.35291438    -0.79900
H1411       H  0.78255699  0.19356196  0.24890557    -0.03700
O1412       O  0.77291571  0.12433618  0.36134102    -0.85200
H1413       H  0.76291266  0.11683127  0.42041108    -0.03500
H1414       H  0.81269493  0.09746416  0.24462985    -0.03700
C1415       C  0.77134873  0.13541601  0.39522366     0.89900
C1416       C  0.80128165  0.20232715  0.27402668     0.90500
C1417       C  0.80324760  0.10542002  0.27083063     0.90500
H1418       H  0.88836629  0.14698090  0.41705405    -0.03600
O1419       O  0.89115911  0.22200778  0.39993107    -0.72700
Mg1420     Mg  0.78630047  0.08177525  0.35883496     1.58000
H1421       H  0.85826385  0.23965426  0.42251647    -0.03600
C1422       C  0.70954630  0.17452965  0.35535171     1.02100
O1423       O  0.70327951  0.07255269  0.30922595    -0.79900
C1424       C  0.70446385  0.04346105  0.31432497     0.95600
O1425       O  0.87295295  0.30123035  0.31497509    -0.79900
Mg1426     Mg  0.92209852  0.20507722  0.35624130     1.58200
O1427       O  0.70977805  0.14609851  0.34365680    -0.78200
O1428       O  0.93153409  0.13366754  0.30194055    -0.79900
O1429       O  0.62553453  0.35338493  0.63340074    -0.85500
C1430       C  0.70248215  0.39978696  0.72039425     0.90500
Mg1431     Mg  0.58118013  0.29870497  0.63893582     1.58100
O1432       O  0.72953908  0.37449640  0.63171204    -0.85200
O1433       O  0.66904088  0.38783419  0.59183331    -0.72500
C1434       C  0.65810540  0.20028282  0.68890787     0.95600
O1435       O  0.61644607  0.33932418  0.72900456    -0.72400
O1436       O  0.62830847  0.20010930  0.69483797    -0.79900
Mg1437     Mg  0.63475503  0.38739791  0.68530922     1.58000
C1438       C  0.78998654  0.32243102  0.64252519     0.95500
O1439       O  0.65057400  0.43898845  0.64983386    -0.78100
H1440       H  0.73675519  0.37766610  0.57205171    -0.03500
C1441       C  0.69998161  0.30132844  0.72481744     0.90500
O1442       O  0.61013229  0.27687442  0.59889914    -0.72600
O1443       O  0.68964735  0.39867470  0.68667863    -0.85400
O1444       O  0.78991753  0.35110919  0.65271886    -0.78200
C1445       C  0.80203451  0.45389784  0.67387528     0.95600
C1446       C  0.67866726  0.46663076  0.63608287     0.95500
Mg1447     Mg  0.70163658  0.27921783  0.63838702     1.58000
O1448       O  0.68630529  0.22764566  0.67462423    -0.78100
O1449       O  0.71862535  0.32728966  0.59509628    -0.72400
O1450       O  0.77494057  0.45705830  0.66268172    -0.78200
O1451       O  0.57742374  0.37684913  0.68247294    -0.79900
O1452       O  0.56037499  0.20889801  0.66327205    -0.78200
C1453       C  0.72903839  0.36082496  0.59871036     0.89900
O1454       O  0.64601912  0.26717544  0.63789271    -0.85400
O1455       O  0.71014040  0.31274904  0.69035758    -0.85500
O1456       O  0.66693343  0.27889655  0.73246559    -0.72600
Mg1457     Mg  0.71992757  0.41971616  0.63122597     1.58000
O1458       O  0.79947862  0.42351354  0.68114296    -0.79900
H1459       H  0.61674211  0.35471126  0.57440199    -0.03700
O1460       O  0.60570803  0.29198320  0.69292801    -0.85200
H1461       H  0.59758861  0.28894159  0.75242647    -0.03500
H1462       H  0.64034703  0.25507021  0.57923143    -0.03700
C1463       C  0.60586237  0.30573766  0.72572121     0.89900
C1464       C  0.63598585  0.36495746  0.59903200     0.90500
C1465       C  0.63233974  0.26548106  0.60453457     0.90500
H1466       H  0.71947760  0.31156686  0.74920887    -0.03600
O1467       O  0.72416085  0.38787855  0.72659929    -0.72700
Mg1468     Mg  0.61597231  0.24687768  0.69360280     1.58000
H1469       H  0.69392716  0.40986300  0.74553201    -0.03600
C1470       C  0.54714280  0.34790952  0.67830569     0.95500
O1471       O  0.53477581  0.24179491  0.64569088    -0.79900
C1472       C  0.53269620  0.21152928  0.65320077     0.95600
O1473       O  0.70849680  0.46700239  0.62998514    -0.79900
Mg1474     Mg  0.75353753  0.36731610  0.68587910     1.58200
O1475       O  0.54498334  0.31751769  0.67061395    -0.78200
O1476       O  0.76086434  0.29197943  0.63900260    -0.79900
C1477       C  0.98004071  0.32149902  0.67735563    -0.13600
C1478       C  0.51390200  0.35071503  0.67999497    -0.28800
H1479       H  0.97678102  0.29463788  0.67368652     0.15400
H1480       H  0.51748696  0.37783776  0.68050093     0.16000
C1481       C  0.84306616  0.32177953  0.66941744    -0.13600
C1482       C  0.82549742  0.32496256  0.63725040    -0.28800
H1483       H  0.83023245  0.31739405  0.69879870     0.15400
H1484       H  0.83840214  0.33252499  0.60794191     0.16000
C1485       C  0.89020467  0.38641065  0.74593200    -0.10400
C1486       C  0.89805940  0.36757231  0.72599906    -0.12000
C1487       C  0.83771823  0.26992768  0.58426830    -0.10400
C1488       C  0.86291869  0.28623989  0.60718664    -0.12000
C1489       C  0.93902382  0.27008527  0.58984414    -0.10400
C1490       C  0.93040614  0.28664181  0.61244323    -0.12000
C1491       C  0.83853815  0.48569099  0.67620150    -0.13600
C1492       C  0.84421822  0.01885440  0.66858749    -0.28800
H1493       H  0.86111958  0.48048047  0.67692258     0.15400
H1494       H  0.82137613  0.02318125  0.66333215     0.16000
C1495       C  0.99033591  0.14437445  0.65592438    -0.13600
C1496       C  0.49622809  0.17910358  0.65215112    -0.28800
H1497       H  0.01313318  0.13993086  0.66096262     0.15400
H1498       H  0.47335456  0.18378624  0.65006236     0.16000
C1499       C  0.89594056  0.50366105  0.75035767    -0.10400
C1500       C  0.90085604  0.03198009  0.72769928    -0.12000
C1501       C  0.83800252  0.06251142  0.58175006    -0.10400
C1502       C  0.86327848  0.06925040  0.60341106    -0.12000
C1503       C  0.93359064  0.13213838  0.59708487    -0.10400
C1504       C  0.94133889  0.15797488  0.57560443    -0.12000
C1505       C  0.49235924  0.38502043  0.75348194    -0.10400
C1506       C  0.96520476  0.36624407  0.73286548    -0.12000
C1507       C  0.97054326  0.09496137  0.72179560    -0.10400
C1508       C  0.49436347  0.10198278  0.74561736    -0.12000
C1509       C  0.65693066  0.14563489  0.66489798    -0.13600
C1510       C  0.66001232  0.16713619  0.69617627    -0.28800
H1511       H  0.65266017  0.15354041  0.63511011     0.15400
H1512       H  0.66669108  0.16213554  0.72616679     0.16000
C1513       C  0.67657558  0.49984303  0.63045991    -0.13600
C1514       C  0.67263060  0.01653661  0.66828673    -0.28800
H1515       H  0.67379653  0.50770020  0.60021759     0.15400
H1516       H  0.67456841  0.00722627  0.69822783     0.16000
C1517       C  0.60837104  0.49710949  0.74040967    -0.10400
C1518       C  0.62618882  0.02514813  0.72485081    -0.12000
C1519       C  0.62308342  0.09067818  0.72836923    -0.10400
C1520       C  0.60533342  0.09789084  0.75098418    -0.12000
C1521       C  0.70817983  0.07294321  0.60594178    -0.10400
C1522       C  0.72650943  0.06652619  0.58326524    -0.12000
C1523       C  0.70154396  0.13622439  0.60739422    -0.10400
C1524       C  0.71954423  0.16191552  0.58597492    -0.12000
C1525       C  0.51652304  0.17052747  0.99035448    -0.13600
C1526       C  0.48977787  0.17832277  0.99464635    -0.28800
H1527       H  0.54444368  0.19263082  0.98864826     0.15400
H1528       H  0.96157707  0.15615812  0.99875495     0.16000
C1529       C  0.50670618  0.32280746  0.00305212    -0.13600
C1530       C  0.50957372  0.34306425  0.03545127    -0.28800
H1531       H  0.00387889  0.33287581  0.97438983     0.15400
H1532       H  0.51303512  0.33536423  0.06556604     0.16000
C1533       C  0.54629806  0.30722303  0.94449960    -0.10400
C1534       C  0.56470017  0.33308411  0.92322347    -0.12000
C1535       C  0.53641539  0.23536165  0.93712918    -0.10400
C1536       C  0.55282963  0.22605042  0.91491351    -0.12000
C1537       C  0.66387826  0.15753436  0.03092444    -0.13600
C1538       C  0.68329791  0.17552374  0.99822580    -0.28800
H1539       H  0.67043164  0.16978366  0.06060162     0.15400
H1540       H  0.67380036  0.16300434  0.96884640     0.16000
C1541       C  0.84374738  0.32943622  0.99463744    -0.13600
C1542       C  0.80900292  0.32102364  0.99833486    -0.28800
H1543       H  0.85028839  0.30787531  0.99159708     0.15400
H1544       H  0.80227320  0.34249660  0.00074317     0.16000
C1545       C  0.76507437  0.32515344  0.91520970    -0.10400
C1546       C  0.75604453  0.29919014  0.93689673    -0.12000
C1547       C  0.69069150  0.22963308  0.94120245    -0.10400
C1548       C  0.66458511  0.22178714  0.92043508    -0.12000
C1549       C  0.82171457  0.00476786  0.99695557    -0.13600
C1550       C  0.83981748  0.00094294  0.02801368    -0.28800
H1551       H  0.83854069  0.51447529  0.97430156     0.15400
H1552       H  0.82811388  0.99404255  0.05795581     0.16000
C1553       C  0.67890850  0.99203275  0.00406011    -0.13600
C1554       C  0.66184700  0.99705856  0.97274438    -0.28800
H1555       H  0.66601211  0.98629723  0.03351252     0.15400
H1556       H  0.65344734  0.46362736  0.97997923     0.16000
C1557       C  0.70415434  0.46755151  0.93440034    -0.10400
C1558       C  0.67837972  0.44795842  0.91339945    -0.12000
C1559       C  0.77549101  0.44371370  0.92221789    -0.10400
C1560       C  0.76880856  0.46296662  0.94278102    -0.12000
C1561       C  0.96320088  0.26673564  0.06285119    -0.10400
C1562       C  0.94496304  0.27487090  0.08355327    -0.12000
C1563       C  0.80471463  0.26633415  0.05463136    -0.10400
C1564       C  0.83098210  0.27474435  0.07540348    -0.12000
C1565       C  0.83240416  0.48722220  0.33475084    -0.13600
C1566       C  0.83374647  0.00592874  0.35730480    -0.28800
H1567       H  0.82798517  0.49639797  0.30577272     0.15400
H1568       H  0.84262548  0.00151264  0.38638132     0.16000
C1569       C  0.84793307  0.33886339  0.32158683    -0.13600
C1570       C  0.82023015  0.34501000  0.32755439    -0.28800
H1571       H  0.87537029  0.36173669  0.31910758     0.15400
H1572       H  0.79320969  0.32223756  0.33328458     0.16000
C1573       C  0.78978803  0.43130719  0.39377416    -0.10400
C1574       C  0.77190840  0.44024527  0.41388252    -0.12000
C1575       C  0.79295848  0.36525714  0.39541336    -0.10400
C1576       C  0.77746305  0.34054114  0.41874555    -0.12000
C1577       C  0.86390744  0.40205467  0.26859497    -0.10400
C1578       C  0.88198923  0.39501197  0.24637867    -0.12000
C1579       C  0.64250588  0.49500461  0.33287324    -0.13600
C1580       C  0.67118175  0.00831427  0.30860014    -0.28800
H1581       H  0.63735960  0.51756888  0.33493590     0.15400
H1582       H  0.66558038  0.99556396  0.27917829     0.16000
C1583       C  0.50816148  0.35815490  0.34435202    -0.13600
C1584       C  0.00349801  0.32544162  0.34865337    -0.28800
H1585       H  0.48436132  0.36126468  0.34115569     0.15400
H1586       H  0.02720258  0.32203322  0.34857371     0.16000
C1587       C  0.56885844  0.37324942  0.39864789    -0.10400
C1588       C  0.56222160  0.34708766  0.41922548    -0.12000
C1589       C  0.63569266  0.44150105  0.39234844    -0.10400
C1590       C  0.66251987  0.44970926  0.41224773    -0.12000
C1591       C  0.99670364  0.39721391  0.25532813    -0.10400
C1592       C  0.52236819  0.40560838  0.27735796    -0.12000
C1593       C  0.94346229  0.17248937  0.08236452    -0.10400
C1594       C  0.96059076  0.19817516  0.06064614    -0.12000
C1595       C  0.82957310  0.05924965  0.08184553    -0.10400
C1596       C  0.80383268  0.04091364  0.06034251    -0.12000
C1597       C  0.87202521  0.47237439  0.27621045    -0.10400
C1598       C  0.89054804  0.99692918  0.25184354    -0.12000
C1599       C  0.74173285  0.19595284  0.05696249    -0.10400
C1600       C  0.73513095  0.17097626  0.07921278    -0.12000
C1601       C  0.73387815  0.03514947  0.06154796    -0.10400
C1602       C  0.72683739  0.05366938  0.08277214    -0.12000
C1603       C  0.58984795  0.47363488  0.27125030    -0.10400
C1604       C  0.60446612  0.00208267  0.25334459    -0.12000
C1605       C  0.67410609  0.17231944  0.36070588    -0.13600
C1606       C  0.65854255  0.17971898  0.32952353    -0.28800
H1607       H  0.65992225  0.16259236  0.38915239     0.15400
H1608       H  0.67251687  0.18679335  0.30067510     0.16000
C1609       C  0.99578710  0.16826785  0.29989658    -0.13600
C1610       C  0.51508043  0.16641120  0.33312580    -0.28800
H1611       H  0.00671753  0.17328783  0.26959247     0.15400
H1612       H  0.50389085  0.16384307  0.36319713     0.16000
C1613       C  0.57149174  0.21492597  0.38645425    -0.10400
C1614       C  0.56379795  0.23368640  0.40662674    -0.12000
C1615       C  0.63824560  0.21371414  0.39283638    -0.10400
C1616       C  0.66261248  0.23006477  0.41660299    -0.12000
C1617       C  0.00678827  0.10946755  0.25094080    -0.10400
C1618       C  0.53332249  0.12814187  0.27230732    -0.12000
C1619       C  0.61258206  0.11908370  0.24950624    -0.10400
C1620       C  0.60470517  0.13693868  0.27080170    -0.12000
C1621       C  0.62067650  0.67537600  0.33526591     0.05100
C1622       C  0.59562692  0.65583376  0.30424401     0.05100
C1623       C  0.56109887  0.65322026  0.30346335     0.05100
C1624       C  0.55229740  0.67199012  0.33251924     0.05100
C1625       C  0.57782924  0.69225598  0.36292448     0.05100
C1626       C  0.61124524  0.69274299  0.36520231     0.05100
C1627       C  0.62079248  0.59417485  0.23157920    -0.08000
C1628       C  0.60518816  0.55848699  0.24540895    -0.01900
C1629       C  0.61429551  0.53399864  0.22857840    -0.08000
C1630       C  0.63961728  0.54531495  0.19645332     0.13000
C1631       C  0.65559654  0.58159441  0.18200305     0.00200
C1632       C  0.64599199  0.60608734  0.19950385     0.12800
C1633       C  0.66209500  0.64185667  0.18477381    -0.09800
C1634       C  0.68730932  0.65348026  0.15346278    -0.09800
C1635       C  0.69765706  0.62989274  0.13606769     0.12800
C1636       C  0.68172483  0.59362366  0.15051067     0.00200
C1637       C  0.64973863  0.52164716  0.17870858    -0.09900
C1638       C  0.67523225  0.53339739  0.14757639    -0.09900
C1639       C  0.69167990  0.56930382  0.13323980     0.13000
C1640       C  0.71773754  0.58171317  0.10194377    -0.08000
C1641       C  0.73319221  0.61734150  0.08818586    -0.01900
C1642       C  0.72335064  0.64138686  0.10441469    -0.08000
H1643       H  0.65524883  0.66117212  0.19735495     0.10200
H1644       H  0.69892436  0.68125758  0.14319381     0.10200
H1645       H  0.64332394  0.99520468  0.19649806     0.10400
H1646       H  0.68213878  0.51415089  0.13491633     0.10400
H1647       H  0.58649190  0.54995759  0.27068138     0.06800
H1648       H  0.75240928  0.62619163  0.06337696     0.06800
C1649       C  0.91443787  0.53199621  0.23521468    -0.08000
C1650       C  0.94950041  0.55397435  0.25033292    -0.01900
C1651       C  0.97245737  0.58829202  0.23414674    -0.08000
C1652       C  0.96019308  0.60119007  0.20185543     0.13000
C1653       C  0.92461000  0.57895757  0.18616449     0.00200
C1654       C  0.90166644  0.54412420  0.20280028     0.12800
C1655       C  0.86650769  0.52249844  0.18683078    -0.09800
C1656       C  0.85413278  0.53482158  0.15495823    -0.09800
C1657       C  0.87631392  0.56935964  0.13817407     0.12800
C1658       C  0.91180491  0.59171145  0.15406545     0.00200
C1659       C  0.98235570  0.63575544  0.18506510    -0.09900
C1660       C  0.96989591  0.64817810  0.15336377    -0.09900
C1661       C  0.93473740  0.62656718  0.13744053     0.13000
C1662       C  0.92197827  0.63864383  0.10496691    -0.08000
C1663       C  0.88704462  0.61653570  0.08967762    -0.01900
C1664       C  0.86421476  0.58211062  0.10561744    -0.08000
H1665       H  0.84835802  0.99422908  0.19394675     0.10200
H1666       H  0.82693457  0.51708844  0.14364227     0.10200
H1667       H  0.51037084  0.65317291  0.19590262     0.10400
H1668       H  0.98807648  0.67496733  0.14144297     0.10400
H1669       H  0.95867864  0.54464260  0.27584457     0.06800
H1670       H  0.87795270  0.62577185  0.06399618     0.06800
C1671       C  0.61380299  0.95671414  0.33749957     0.05100
C1672       C  0.58763494  0.95022979  0.30744341     0.05100
C1673       C  0.55321898  0.91868518  0.30914405     0.05100
C1674       C  0.54406397  0.89360324  0.34102983     0.05100
C1675       C  0.57092570  0.89878653  0.36983590     0.05100
C1676       C  0.60552646  0.93030975  0.36787267     0.05100
C1677       C  0.82904151  0.94909635  0.32994452     0.05100
C1678       C  0.84827887  0.94211569  0.29989373     0.05100
C1679       C  0.84846079  0.90906982  0.29951586     0.05100
C1680       C  0.83085437  0.88332317  0.33058094     0.05100
C1681       C  0.81269032  0.89097388  0.36152648     0.05100
C1682       C  0.81112077  0.92336169  0.36087493     0.05100
C1683       C  0.97015368  0.88905170  0.23152667    -0.08000
C1684       C  0.94595263  0.89983637  0.24501716    -0.01900
C1685       C  0.91181398  0.88634856  0.22750546    -0.08000
C1686       C  0.90160190  0.86197337  0.19476087     0.13000
C1687       C  0.92605642  0.85067064  0.18083012     0.00200
C1688       C  0.96046389  0.86408527  0.19950896     0.12800
C1689       C  0.98397488  0.85193396  0.18597991    -0.09800
C1690       C  0.97388696  0.82706343  0.15448559    -0.09800
C1691       C  0.94000457  0.81359359  0.13531235     0.12800
C1692       C  0.91590382  0.82557789  0.14858065     0.00200
C1693       C  0.86767681  0.84844225  0.17580913    -0.09900
C1694       C  0.85808362  0.82456565  0.14344021    -0.09900
C1695       C  0.88179576  0.81280744  0.12939244     0.13000
C1696       C  0.87241330  0.78878216  0.09648188    -0.08000
C1697       C  0.89610249  0.77685202  0.08390971    -0.01900
C1698       C  0.92956928  0.78870928  0.10298183    -0.08000
H1699       H  0.50944304  0.86116225  0.20009642     0.10200
H1700       H  0.99291622  0.81852403  0.14518357     0.10200
H1701       H  0.84843497  0.85653484  0.18564302     0.10400
H1702       H  0.83174138  0.81519531  0.12964900     0.10400
H1703       H  0.95334692  0.91810444  0.27059011     0.06800
H1704       H  0.88871609  0.75866595  0.05829284     0.06800
C1705       C  0.78669277  0.50338456  0.00196059     0.05100
C1706       C  0.77857427  0.52242018  0.03111664     0.05100
C1707       C  0.74681880  0.52491797  0.02716679     0.05100
C1708       C  0.72377790  0.50982786  0.99330849     0.05100
C1709       C  0.72450393  0.97881401  0.97038376     0.05100
C1710       C  0.75853253  0.98068373  0.97055991     0.05100
C1711       C  0.78656596  0.78467898  0.99474975     0.05100
C1712       C  0.78325932  0.75997235  0.02540790     0.05100
C1713       C  0.75175931  0.72560078  0.02820075     0.05100
C1714       C  0.72381147  0.71483318  0.99949620     0.05100
C1715       C  0.72670751  0.73942335  0.96895825     0.05100
C1716       C  0.75809854  0.77417321  0.96625852     0.05100
C1717       C  0.50132071  0.71487944  0.00122608     0.05100
C1718       C  0.98527781  0.72413981  0.03228209     0.05100
C1719       C  0.98919977  0.75906297  0.03395935     0.05100
C1720       C  0.50913005  0.78509981  0.00432054     0.05100
C1721       C  0.52434414  0.77530722  0.97217613     0.05100
C1722       C  0.52074772  0.74051090  0.97066664     0.05100
C1723       C  0.67043101  0.61706314  0.67356948     0.05100
C1724       C  0.68933822  0.61270601  0.64102977     0.05100
C1725       C  0.68996869  0.58007510  0.63614046     0.05100
C1726       C  0.67071933  0.55073859  0.66319816     0.05100
C1727       C  0.64966521  0.55425462  0.69411714     0.05100
C1728       C  0.64992856  0.58731781  0.69966384     0.05100
C1729       C  0.57846137  0.70949890  0.89989192    -0.08000
C1730       C  0.61273651  0.72105398  0.91659182    -0.01900
C1731       C  0.63499039  0.70804970  0.90230609    -0.08000
C1732       C  0.62298419  0.68268635  0.87051809     0.13000
C1733       C  0.58831405  0.67083455  0.85305594     0.00200
C1734       C  0.56588074  0.68430542  0.86772573     0.12800
C1735       C  0.53165213  0.67220526  0.84986373    -0.09800
C1736       C  0.51999827  0.64789594  0.81763889    -0.09800
C1737       C  0.54191771  0.63438650  0.80255304     0.12800
C1738       C  0.57613666  0.64552169  0.82085086     0.00200
C1739       C  0.64471488  0.66885975  0.85580266    -0.09900
C1740       C  0.63275600  0.64401727  0.82428451    -0.09900
C1741       C  0.59863212  0.63209113  0.80631398     0.13000
C1742       C  0.58665116  0.60758858  0.77366112    -0.08000
C1743       C  0.55310592  0.59710820  0.75563018    -0.01900
C1744       C  0.53089925  0.61043850  0.76929180    -0.08000
H1745       H  0.51379102  0.68179783  0.86040310     0.10200
H1746       H  0.99386483  0.64019450  0.80416395     0.10200
H1747       H  0.67127672  0.67724238  0.86847612     0.10400
H1748       H  0.65057485  0.63428052  0.81401865     0.10400
H1749       H  0.62199601  0.74000346  0.94162406     0.06800
H1750       H  0.54479848  0.57941189  0.72950135     0.06800
C1751       C  0.58185965  0.86056317  0.89736694    -0.08000
C1752       C  0.61705819  0.88294806  0.91164450    -0.01900
C1753       C  0.63893439  0.91767834  0.89609176    -0.08000
C1754       C  0.62580045  0.93035169  0.86439393     0.13000
C1755       C  0.58987344  0.90784390  0.84971530     0.00200
C1756       C  0.56769523  0.87283428  0.86646411     0.12800
C1757       C  0.53193158  0.85127326  0.85221706    -0.09800
C1758       C  0.51812829  0.86385757  0.82204371    -0.09800
C1759       C  0.53964737  0.89838431  0.80483309     0.12800
C1760       C  0.57592059  0.92053509  0.81867218     0.00200
C1761       C  0.64735871  0.96485194  0.84721648    -0.09900
C1762       C  0.63409090  0.97683170  0.81580062    -0.09900
C1763       C  0.59846445  0.95509724  0.80108629     0.13000
C1764       C  0.58483725  0.96678906  0.76899306    -0.08000
C1765       C  0.54885830  0.94503063  0.75616193    -0.01900
C1766       C  0.52608733  0.91119224  0.77375517    -0.08000
H1767       H  0.51428536  0.82444316  0.86437010     0.10200
H1768       H  0.99117373  0.84654169  0.81203203     0.10200
H1769       H  0.67485702  0.98266924  0.85764884     0.10400
H1770       H  0.65391075  0.50332728  0.79612801     0.10400
H1771       H  0.62710126  0.87368678  0.93644242     0.06800
H1772       H  0.53880901  0.95401884  0.73114505     0.06800
C1773       C  0.88279132  0.55092593  0.66990646     0.05100
C1774       C  0.91047993  0.55645568  0.69781044     0.05100
C1775       C  0.94526886  0.58743503  0.69423444     0.05100
C1776       C  0.95280566  0.61266377  0.66271429     0.05100
C1777       C  0.92549803  0.60623817  0.63402253     0.05100
C1778       C  0.89077405  0.57547262  0.63765934     0.05100
C1779       C  0.88499818  0.83559725  0.66317527     0.05100
C1780       C  0.90906988  0.85394762  0.69545586     0.05100
C1781       C  0.94033102  0.85084913  0.70177978     0.05100
C1782       C  0.94763243  0.82878455  0.67585363     0.05100
C1783       C  0.92357866  0.81044392  0.64355245     0.05100
C1784       C  0.89267511  0.81403892  0.63696282     0.05100
C1785       C  0.78127047  0.91765704  0.89806928    -0.08000
C1786       C  0.76786648  0.88214183  0.91148848    -0.01900
C1787       C  0.77893524  0.85950553  0.89378968    -0.08000
C1788       C  0.80391492  0.87260412  0.86130010     0.13000
C1789       C  0.81739063  0.90871078  0.84725490     0.00200
C1790       C  0.80589011  0.93128187  0.86567390     0.12800
C1791       C  0.81964647  0.96703732  0.85164104    -0.09800
C1792       C  0.84426858  0.98042014  0.81991638    -0.09800
C1793       C  0.85631972  0.95867837  0.80136265     0.12800
C1794       C  0.84294283  0.92256398  0.81529211     0.00200
C1795       C  0.81616442  0.85094547  0.84282729    -0.09900
C1796       C  0.84112375  0.86447356  0.81121415    -0.09900
C1797       C  0.85487612  0.90022444  0.79709263     0.13000
C1798       C  0.88010542  0.91429836  0.76509094    -0.08000
C1799       C  0.89287151  0.94970047  0.75150347    -0.01900
C1800       C  0.88121820  0.97193681  0.76903273    -0.08000
H1801       H  0.81136787  0.98499390  0.86501497     0.10200
H1802       H  0.86008669  0.50804981  0.81158177     0.10200
H1803       H  0.80645683  0.82332041  0.85266371     0.10400
H1804       H  0.84965855  0.84667304  0.79796020     0.10400
H1805       H  0.74962781  0.87245102  0.93717344     0.06800
H1806       H  0.91146015  0.95978693  0.72613832     0.06800
C1807       C  0.54583797  0.80898590  0.43737070    -0.08000
C1808       C  0.55902926  0.78827504  0.41884863    -0.01900
C1809       C  0.54839278  0.75306400  0.43193764    -0.08000
C1810       C  0.52381634  0.73773606  0.46436076     0.13000
C1811       C  0.51040296  0.75842788  0.48365387     0.00200
C1812       C  0.52146802  0.79422532  0.47020389     0.12800
C1813       C  0.50777058  0.81415508  0.48987380    -0.09800
C1814       C  0.98603834  0.80047240  0.52377398    -0.09800
C1815       C  0.97423015  0.76493131  0.53733921     0.12800
C1816       C  0.98677653  0.74376550  0.51745302     0.00200
C1817       C  0.51216429  0.70218266  0.47785204    -0.09900
C1818       C  0.98827531  0.68746498  0.51090545    -0.09900
C1819       C  0.97504128  0.70775700  0.53057002     0.13000
C1820       C  0.95068278  0.69322562  0.56332281    -0.08000
C1821       C  0.93876989  0.71448916  0.58281053    -0.01900
C1822       C  0.95044408  0.75002928  0.57050016    -0.08000
H1823       H  0.51548186  0.84143684  0.48038583     0.10200
H1824       H  0.97690149  0.81735039  0.53815890     0.10200
H1825       H  0.52176589  0.68555085  0.46381603     0.10400
H1826       H  0.97992156  0.65995401  0.52009636     0.10400
H1827       H  0.57729051  0.79945592  0.39333325     0.06800
H1828       H  0.92096305  0.70356604  0.60874175     0.06800
C1829       C  0.69605739  0.75071927  0.44044978    -0.08000
C1830       C  0.71878650  0.78486530  0.42390991    -0.01900
C1831       C  0.75428987  0.80653173  0.43765319    -0.08000
C1832       C  0.76770393  0.79428914  0.46933790     0.13000
C1833       C  0.74473273  0.75976221  0.48683400     0.00200
C1834       C  0.70863742  0.73784540  0.47244064     0.12800
C1835       C  0.68640623  0.70366564  0.49008954    -0.09800
C1836       C  0.69927022  0.69138100  0.52162109    -0.09800
C1837       C  0.73503399  0.71256873  0.53610966     0.12800
C1838       C  0.75811914  0.74687899  0.51821829     0.00200
C1839       C  0.80351089  0.81538336  0.48360854    -0.09900
C1840       C  0.81665212  0.80273491  0.51438727    -0.09900
C1841       C  0.79446530  0.76852920  0.53198277     0.13000
C1842       C  0.80747008  0.75548395  0.56330346    -0.08000
C1843       C  0.78436404  0.72189539  0.58098022    -0.01900
C1844       C  0.74841297  0.70059772  0.56817932    -0.08000
H1845       H  0.65875867  0.68629155  0.47982553     0.10200
H1846       H  0.68102318  0.66498253  0.53441086     0.10200
H1847       H  0.82169506  0.84188674  0.47101341     0.10400
H1848       H  0.84445289  0.81998413  0.52423479     0.10400
H1849       H  0.70916301  0.79413019  0.39871752     0.06800
H1850       H  0.79418358  0.71271451  0.60605481     0.06800
C1851       C  0.75095889  0.95094062  0.43328457    -0.08000
C1852       C  0.71604344  0.93928654  0.41850608    -0.01900
C1853       C  0.69442947  0.95241969  0.43452099    -0.08000
C1854       C  0.70754030  0.97782527  0.46628652     0.13000
C1855       C  0.74289395  0.98990813  0.48167167     0.00200
C1856       C  0.76474335  0.97636808  0.46522805     0.12800
C1857       C  0.79974526  0.98880667  0.48100048    -0.09800
C1858       C  0.81394962  0.51572757  0.51307171    -0.09800
C1859       C  0.79400852  0.53114559  0.52883573     0.12800
C1860       C  0.75975494  0.52168011  0.51161863     0.00200
C1861       C  0.68637209  0.99167610  0.48279578    -0.09900
C1862       C  0.70508089  0.52680732  0.51007465    -0.09900
C1863       C  0.73918737  0.53691057  0.52714373     0.13000
C1864       C  0.75301084  0.56121171  0.55997416    -0.08000
C1865       C  0.78664767  0.57028484  0.57660517    -0.01900
C1866       C  0.80697498  0.55528738  0.56187762    -0.08000
H1867       H  0.81714557  0.97909806  0.46926544     0.10200
H1868       H  0.84032452  0.52263770  0.52524113     0.10200
H1869       H  0.65922252  0.98300235  0.47176365     0.10400
H1870       H  0.68880162  0.53811426  0.52101724     0.10400
H1871       H  0.70589909  0.92045960  0.39337717     0.06800
H1872       H  0.79631789  0.58788610  0.60281559     0.06800
O1873       O  0.94964627  0.51021352  0.97699322    -0.85500
C1874       C  0.53266306  0.56771844  0.05826234     0.90500
Mg1875     Mg  0.91463310  0.96457830  0.97057700     1.58100
O1876       O  0.56128216  0.54451397  0.96901151    -0.85200
O1877       O  0.49154057  0.54519333  0.93360012    -0.72500
C1878       C  0.99164373  0.86554149  0.00660163     0.95600
O1879       O  0.94749179  0.49993484  0.07338286    -0.72400
O1880       O  0.96300320  0.86712311  0.01266491    -0.79900
Mg1881     Mg  0.95896735  0.54523572  0.02805671     1.58000
C1882       C  0.62736023  0.49636606  0.98183488     0.95500
O1883       O  0.96779324  0.59484359  0.99110922    -0.78100
H1884       H  0.56750571  0.54767310  0.90923058    -0.03500
C1885       C  0.53195078  0.96362723  0.05885435     0.90500
O1886       O  0.94861279  0.95032582  0.92826076    -0.72600
O1887       O  0.51603935  0.56159273  0.02605429    -0.85400
O1888       O  0.62988074  0.52698149  0.98998157    -0.78200
C1889       C  0.62771882  0.63087373  0.00621494     0.95600
C1890       C  0.49477434  0.62344613  0.97712298     0.95500
Mg1891     Mg  0.53872996  0.94970484  0.96984204     1.58000
O1892       O  0.52144950  0.89346035  0.99873111    -0.78100
O1893       O  0.55789929  0.00152540  0.93240593    -0.72400
O1894       O  0.59639560  0.62660407  0.99855917    -0.78200
O1895       O  0.89909808  0.52757923  0.02944893    -0.79900
O1896       O  0.89983267  0.87642174  0.98166657    -0.78200
C1897       C  0.56112181  0.53113280  0.93603555     0.89900
O1898       O  0.98380508  0.93853875  0.96619005    -0.85400
O1899       O  0.54488845  0.97806026  0.02610868    -0.85500
O1900       O  0.99873963  0.94065034  0.06199046    -0.72600
Mg1901     Mg  0.54305312  0.58342905  0.96944542     1.58000
O1902       O  0.63299779  0.60405962  0.01146779    -0.79900
H1903       H  0.94003398  0.50735311  0.91777790    -0.03700
O1904       O  0.93822652  0.95488177  0.02324874    -0.85200
H1905       H  0.92601886  0.94412189  0.08159877    -0.03500
H1906       H  0.98272436  0.93398574  0.90621952    -0.03700
C1907       C  0.93538287  0.96405883  0.05770425     0.89900
C1908       C  0.95932994  0.52035392  0.94198186     0.90500
C1909       C  0.97204098  0.94025959  0.93264543     0.90500
H1910       H  0.54941418  0.97154896  0.08505624    -0.03600
O1911       O  0.55932537  0.56226809  0.06244076    -0.72700
Mg1912     Mg  0.95076253  0.91213358  0.01822821     1.58000
H1913       H  0.52397526  0.57739836  0.08364734    -0.03600
C1914       C  0.87068711  0.49639079  0.02854414     0.95500
O1915       O  0.86941359  0.90525529  0.96773304    -0.79900
C1916       C  0.87119107  0.87633413  0.97046654     0.95600
O1917       O  0.52489959  0.62525975  0.96912712    -0.79900
Mg1918     Mg  0.59103380  0.54387314  0.02151868     1.58200
O1919       O  0.87619543  0.97717728  0.00630781    -0.78200
O1920       O  0.59767523  0.96336646  0.97220791    -0.79900
O1921       O  0.78622776  0.68176399  0.30905880    -0.85500
C1922       C  0.86494789  0.73412241  0.39356397     0.90500
Mg1923     Mg  0.74576744  0.62528956  0.31695299     1.58100
O1924       O  0.89381443  0.71235882  0.30364397    -0.85200
O1925       O  0.82804005  0.71849201  0.26696257    -0.72500
C1926       C  0.83692942  0.54168260  0.36222049     0.95600
O1927       O  0.78040668  0.66993903  0.40468676    -0.72400
O1928       O  0.80729904  0.54056687  0.37109286    -0.79900
Mg1929     Mg  0.79357532  0.71616010  0.35949081     1.58000
C1930       C  0.96143774  0.66741594  0.31006163     0.95500
O1931       O  0.80453395  0.76593477  0.32142073    -0.78100
H1932       H  0.89970670  0.71599509  0.24381156    -0.03500
C1933       C  0.87375121  0.64225918  0.39738467     0.90500
O1934       O  0.77732984  0.60791964  0.27505690    -0.72600
O1935       O  0.85074800  0.73241891  0.36048835    -0.85400
O1936       O  0.95979560  0.69527062  0.32066375    -0.78200
C1937       C  0.96424149  0.79512853  0.34313562     0.95600
C1938       C  0.83218891  0.79506970  0.30932458     0.95500
Mg1939     Mg  0.87384712  0.61957265  0.31009576     1.58000
O1940       O  0.86347831  0.56911879  0.34572983    -0.78100
O1941       O  0.88610588  0.66651459  0.26665938    -0.72400
O1942       O  0.93557479  0.79627223  0.33369279    -0.78200
O1943       O  0.73332884  0.69893585  0.35679777    -0.79900
O1944       O  0.73830557  0.54139094  0.33962772    -0.78200
C1945       C  0.89383989  0.69931996  0.27043132     0.89900
O1946       O  0.81778881  0.60423592  0.31264663    -0.85400
O1947       O  0.88194992  0.65277000  0.36230041    -0.85500
O1948       O  0.84146989  0.61907129  0.40702117    -0.72600
Mg1949     Mg  0.87963749  0.75448448  0.30451153     1.58000
O1950       O  0.96377065  0.76563844  0.34976898    -0.79900
H1951       H  0.77652305  0.68160717  0.25007876    -0.03700
O1952       O  0.77503638  0.62418183  0.36927357    -0.85200
H1953       H  0.76744866  0.62103525  0.42890070    -0.03500
H1954       H  0.81135693  0.59101045  0.25427166    -0.03700
C1955       C  0.77376247  0.63737553  0.40194324     0.89900
C1956       C  0.79581202  0.69340983  0.27451655     0.90500
C1957       C  0.80241573  0.60022288  0.27985422     0.90500
H1958       H  0.89421263  0.65432862  0.42067298    -0.03600
O1959       O  0.88927839  0.72525835  0.39797274    -0.72700
Mg1960     Mg  0.79075031  0.58330026  0.36975273     1.58000
H1961       H  0.85568710  0.74240292  0.41966019    -0.03600
C1962       C  0.70531891  0.66740285  0.35732432     1.02100
O1963       O  0.70376817  0.56569239  0.32488553    -0.79900
C1964       C  0.70785682  0.53828399  0.33037204     0.95600
O1965       O  0.86336826  0.79802314  0.30494733    -0.79900
Mg1966     Mg  0.92143210  0.70828443  0.35605936     1.58200
O1967       O  0.70740644  0.63872763  0.35310063    -0.78200
O1968       O  0.93345490  0.63606271  0.30767450    -0.79900
O1969       O  0.62290394  0.85259087  0.63985977    -0.85500
C1970       C  0.70249025  0.89863336  0.72541189     0.90500
Mg1971     Mg  0.57830563  0.79843953  0.64418639     1.58100
O1972       O  0.72779930  0.87224436  0.63613253    -0.85200
O1973       O  0.66640038  0.88589244  0.59775904    -0.72500
C1974       C  0.64957725  0.69539602  0.68579992     0.95600
O1975       O  0.61527437  0.83713496  0.73554249    -0.72400
O1976       O  0.62108504  0.69747140  0.69121906    -0.79900
Mg1977     Mg  0.63341459  0.88569528  0.69285738     1.58000
C1978       C  0.78562430  0.81516487  0.65142022     0.95500
O1979       O  0.64897133  0.93742542  0.65875095    -0.78100
H1980       H  0.73719498  0.87611701  0.57685053    -0.03500
C1981       C  0.69629728  0.79811853  0.72908458     0.90500
O1982       O  0.60718980  0.77750772  0.60241368    -0.72600
O1983       O  0.68840485  0.89658830  0.69225350    -0.85400
O1984       O  0.78816791  0.84600062  0.65717968    -0.78200
C1985       C  0.80141281  0.95252353  0.67477629     0.95600
C1986       C  0.67631792  0.96458424  0.64326639     0.95500
Mg1987     Mg  0.69788268  0.77665671  0.64281888     1.58000
O1988       O  0.68012645  0.72323468  0.67753699    -0.78100
O1989       O  0.71779479  0.82541332  0.59964443    -0.72400
O1990       O  0.77364585  0.95524940  0.66549459    -0.78200
O1991       O  0.57614133  0.87560516  0.69140137    -0.79900
O1992       O  0.55838957  0.70959968  0.66262221    -0.78200
C1993       C  0.72827329  0.85895186  0.60326137     0.89900
O1994       O  0.64328134  0.76748941  0.64057892    -0.85400
O1995       O  0.70749182  0.81032634  0.69508366    -0.85500
O1996       O  0.66299131  0.77538219  0.73536842    -0.72600
Mg1997     Mg  0.71775564  0.91750389  0.63606547     1.58000
O1998       O  0.79926842  0.92220734  0.68241291    -0.79900
H1999       H  0.61371804  0.85412709  0.58103945    -0.03700
O2000       O  0.60304196  0.79066859  0.69726292    -0.85200
H2001       H  0.59551252  0.78593600  0.75685395    -0.03500
H2002       H  0.63825815  0.75704794  0.58149500    -0.03700
C2003       C  0.60380525  0.80353034  0.73079458     0.89900
C2004       C  0.63322192  0.86400257  0.60543189     0.90500
C2005       C  0.62988386  0.76659707  0.60726391     0.90500
H2006       H  0.71511249  0.80747005  0.75413073    -0.03600
O2007       O  0.72466671  0.88720537  0.73078543    -0.72700
Mg2008     Mg  0.61226587  0.74542592  0.69498297     1.58000
H2009       H  0.69484077  0.90932715  0.75075139    -0.03600
C2010       C  0.54557337  0.84717155  0.68629020     0.95500
O2011       O  0.53134377  0.74190776  0.64984131    -0.79900
C2012       C  0.53015013  0.71180054  0.65506384     0.95600
O2013       O  0.70580194  0.96471130  0.63539782    -0.79900
Mg2014     Mg  0.75254695  0.86510811  0.68969079     1.58200
O2015       O  0.54275812  0.81670601  0.67761260    -0.78200
O2016       O  0.75511548  0.78634441  0.64736490    -0.79900
C2017       C  0.97983412  0.82376831  0.68222017    -0.13600
C2018       C  0.51287198  0.85087266  0.68716506    -0.28800
H2019       H  0.97578953  0.79654214  0.67928460     0.15400
H2020       H  0.51735641  0.87832344  0.68674780     0.16000
C2021       C  0.85241557  0.84013509  0.65693251    -0.13600
C2022       C  0.81859270  0.81173897  0.65210770    -0.28800
H2023       H  0.85610240  0.86722812  0.65979023     0.15400
H2024       H  0.81439507  0.78437980  0.65243192     0.16000
C2025       C  0.89196521  0.89265367  0.74364753    -0.10400
C2026       C  0.90082268  0.87522646  0.72286769    -0.12000
C2027       C  0.84275111  0.77737120  0.58168238    -0.10400
C2028       C  0.86806913  0.79478413  0.60397067    -0.12000
C2029       C  0.93931345  0.77113529  0.59433938    -0.10400
C2030       C  0.93142405  0.78876548  0.61613839    -0.12000
C2031       C  0.83797453  0.98492955  0.67459857    -0.13600
C2032       C  0.84507745  0.51979852  0.67370889    -0.28800
H2033       H  0.86080725  0.98019893  0.67681082     0.15400
H2034       H  0.82250371  0.52484434  0.67018495     0.16000
C2035       C  0.98964634  0.64546390  0.65994708    -0.13600
C2036       C  0.49439594  0.67879104  0.65468073    -0.28800
H2037       H  0.01323078  0.64207657  0.66372982     0.15400
H2038       H  0.47080063  0.68238989  0.65391499     0.16000
C2039       C  0.89283996  0.00670729  0.75011895    -0.10400
C2040       C  0.90361998  0.52961343  0.72900582    -0.12000
C2041       C  0.83894075  0.56258228  0.58452630    -0.10400
C2042       C  0.86324128  0.56862050  0.60761333    -0.12000
C2043       C  0.93256332  0.63225767  0.60196494    -0.10400
C2044       C  0.93993890  0.65807085  0.58068294    -0.12000
C2045       C  0.49058432  0.88875493  0.75568793    -0.10400
C2046       C  0.96571446  0.87120442  0.73396050    -0.12000
C2047       C  0.97324624  0.59405132  0.72360972    -0.10400
C2048       C  0.49866814  0.60131954  0.74598558    -0.12000
C2049       C  0.67439117  0.65371122  0.68056722    -0.13600
C2050       C  0.64599190  0.65900221  0.68621185    -0.28800
H2051       H  0.70135968  0.67722019  0.67706954     0.15400
H2052       H  0.61860086  0.63591065  0.68678227     0.16000
C2053       C  0.67346903  0.99721674  0.63652320    -0.13600
C2054       C  0.67495671  0.51769206  0.66321362    -0.28800
H2055       H  0.66906767  0.00325763  0.60603968     0.15400
H2056       H  0.67571180  0.50664987  0.69254675     0.16000
C2057       C  0.60773523  0.99954401  0.74638205    -0.10400
C2058       C  0.62715239  0.52346188  0.71999094    -0.12000
C2059       C  0.62881792  0.59067578  0.73189156    -0.10400
C2060       C  0.60987299  0.59639423  0.75422870    -0.12000
C2061       C  0.71262567  0.57789394  0.60507223    -0.10400
C2062       C  0.73128576  0.57282377  0.58170775    -0.12000
C2063       C  0.70870564  0.64224580  0.61266395    -0.10400
C2064       C  0.72571831  0.66785647  0.59070013    -0.12000
C2065       C  0.49184013  0.65620628  0.97203558    -0.13600
C2066       C  0.50043266  0.67927669  0.00318681    -0.28800
H2067       H  0.48419061  0.66201919  0.94294726     0.15400
H2068       H  0.00583021  0.67074276  0.03150939     0.16000
C2069       C  0.51518087  0.82288573  0.00609394    -0.13600
C2070       C  0.48733429  0.82918559  0.00927215    -0.28800
H2071       H  0.04308476  0.84539280  0.00133278     0.15400
H2072       H  0.45978689  0.80634037  0.01080990     0.16000
C2073       C  0.54370502  0.80153391  0.94076044    -0.10400
C2074       C  0.56022872  0.82673359  0.91826269    -0.12000
C2075       C  0.53979259  0.73209483  0.94006890    -0.10400
C2076       C  0.55645864  0.72250536  0.91877728    -0.12000
C2077       C  0.65846698  0.66856462  0.00714063    -0.13600
C2078       C  0.69288000  0.67666960  0.00055503    -0.28800
H2079       H  0.65240151  0.69044619  0.01026658     0.15400
H2080       H  0.69922044  0.65494977  0.99785037     0.16000
C2081       C  0.83851147  0.84089815  0.96404106    -0.13600
C2082       C  0.81834104  0.82249215  0.99609519    -0.28800
H2083       H  0.83315661  0.82874784  0.93431420     0.15400
H2084       H  0.82679714  0.83501365  0.02563380     0.16000
C2085       C  0.76727637  0.82492474  0.91333139    -0.10400
C2086       C  0.76073485  0.79981073  0.93552354    -0.12000
C2087       C  0.69656189  0.72944713  0.94173437    -0.10400
C2088       C  0.66935777  0.72019632  0.92228490    -0.12000
C2089       C  0.82258964  0.50508148  0.00181364    -0.13600
C2090       C  0.83513947  0.49396884  0.03264525    -0.28800
H2091       H  0.83376235  0.00952614  0.96709004     0.15400
H2092       H  0.81872965  0.48173147  0.05931249     0.16000
C2093       C  0.69355976  0.51793656  0.98714894    -0.13600
C2094       C  0.65932765  0.49154481  0.98087449    -0.28800
H2095       H  0.69906724  0.54548727  0.99210946     0.15400
H2096       H  0.67462340  0.00526238  0.94340345     0.16000
C2097       C  0.69782052  0.95779004  0.93958744    -0.10400
C2098       C  0.67289418  0.94035457  0.91678034    -0.12000
C2099       C  0.77170814  0.94044617  0.92060564    -0.10400
C2100       C  0.76548470  0.95945228  0.94191255    -0.12000
C2101       C  0.97097764  0.76788133  0.06535280    -0.10400
C2102       C  0.95332088  0.77680556  0.08601498    -0.12000
C2103       C  0.81328463  0.76916788  0.05270481    -0.10400
C2104       C  0.83955881  0.77740940  0.07351603    -0.12000
C2105       C  0.82622876  0.98259549  0.32677173    -0.13600
C2106       C  0.83917589  0.50867851  0.36699843    -0.28800
H2107       H  0.81961312  0.98920238  0.29743679     0.15400
H2108       H  0.84470531  0.50136020  0.39641551     0.16000
C2109       C  0.82818951  0.82707611  0.30282495    -0.13600
C2110       C  0.83407439  0.84989777  0.33362668    -0.28800
H2111       H  0.81957326  0.83129911  0.27350257     0.15400
H2112       H  0.84043883  0.84321369  0.36305034     0.16000
C2113       C  0.78992289  0.92978560  0.39076965    -0.10400
C2114       C  0.77257262  0.93831507  0.41247902    -0.12000
C2115       C  0.79381688  0.86429442  0.39272609    -0.10400
C2116       C  0.77687663  0.83948028  0.41558903    -0.12000
C2117       C  0.86912568  0.90280533  0.26903438    -0.10400
C2118       C  0.88731543  0.89583206  0.24693868    -0.12000
C2119       C  0.64877057  0.99212614  0.33995005    -0.13600
C2120       C  0.67646733  0.50135461  0.32803390    -0.28800
H2121       H  0.65679623  0.00491176  0.36939712     0.15400
H2122       H  0.68142506  0.47869090  0.32557013     0.16000
C2123       C  0.50619998  0.86201224  0.34329046    -0.13600
C2124       C  0.00029996  0.82795520  0.34480366    -0.28800
H2125       H  0.48340902  0.86675825  0.34013950     0.15400
H2126       H  0.02341557  0.82355560  0.34515033     0.16000
C2127       C  0.56361713  0.87088187  0.39989330    -0.10400
C2128       C  0.55617987  0.84420063  0.41989098    -0.12000
C2129       C  0.63375195  0.93504586  0.39563428    -0.10400
C2130       C  0.66015182  0.94157268  0.41522453    -0.12000
C2131       C  0.00318882  0.90192212  0.25411486    -0.10400
C2132       C  0.52707331  0.91110468  0.27749644    -0.12000
C2133       C  0.94502426  0.67199137  0.08386152    -0.10400
C2134       C  0.96364104  0.69723104  0.06220448    -0.12000
C2135       C  0.83014524  0.55967859  0.08496046    -0.10400
C2136       C  0.80479274  0.54225966  0.06267338    -0.12000
C2137       C  0.87079578  0.97069861  0.27178727    -0.10400
C2138       C  0.89134141  0.49839219  0.25586757    -0.12000
C2139       C  0.74680783  0.70098666  0.06111796    -0.10400
C2140       C  0.73753434  0.67605117  0.08435886    -0.12000
C2141       C  0.73733739  0.54276559  0.05803991    -0.10400
C2142       C  0.72799917  0.55862330  0.08076964    -0.12000
C2143       C  0.59532554  0.97702270  0.27629619    -0.10400
C2144       C  0.59980434  0.49905548  0.24841463    -0.12000
C2145       C  0.66897550  0.66365936  0.36109124    -0.13600
C2146       C  0.65792892  0.68005936  0.33451082    -0.28800
H2147       H  0.64997271  0.64482013  0.38305627     0.15400
H2148       H  0.67597982  0.69616707  0.31026271     0.16000
C2149       C  0.99743859  0.67146168  0.30381996    -0.13600
C2150       C  0.51533039  0.66811155  0.33440451    -0.28800
H2151       H  0.01010642  0.67929963  0.27438032     0.15400
H2152       H  0.50273573  0.66366375  0.36394459     0.16000
C2153       C  0.57026820  0.71433363  0.39019461    -0.10400
C2154       C  0.56160387  0.73253679  0.41008426    -0.12000
C2155       C  0.63686003  0.71212928  0.39727468    -0.10400
C2156       C  0.66178770  0.72861134  0.42027353    -0.12000
C2157       C  0.00702200  0.61060987  0.25397778    -0.10400
C2158       C  0.53371946  0.62957953  0.27461130    -0.12000
C2159       C  0.61203494  0.61823695  0.25326678    -0.10400
C2160       C  0.60454486  0.63625795  0.27497165    -0.12000
loop_ 
_geom_bond_atom_site_label_1 
_geom_bond_atom_site_label_2 
_geom_bond_distance 
_geom_bond_site_symmetry_2 
_ccdc_geom_bond_type 
C1            C2   1.418       .  A
C1            C6   1.415       .  A
C1          C526   1.500       .  S
C2            C3   1.411       .  A
C2          C540   1.442       .  S
C3            C4   1.415       .  A
C3          C538   1.461       .  S
C4            C5   1.417       .  A
C4          C530   1.494       .  S
C5            C6   1.411       .  A
C5          C533   1.450       .  S
C6          C535   1.453       .  S
C7            C8   1.393       .  A
C7           C12   1.410       .  A
C7          C539   1.436       .  S
C8            C9   1.392       .  A
C8           H27   1.086       .  S
C9           C10   1.415       .  A
C9          C524   1.445       .  S
C10          C11   1.422       .  A
C10          C17   1.405       .  A
C11          C12   1.417       .  A
C11          C16   1.419       .  A
C12          C13   1.407       .  A
C13          C14   1.393       .  A
C13          H23   1.083       .  S
C14          C15   1.406       .  A
C14          H24   1.083       .  S
C15          C16   1.421       .  A
C15          C22   1.415       .  A
C16          C19   1.417       .  A
C17          C18   1.394       .  A
C17         H565   1.083   1_545  S
C18          C19   1.408       .  A
C18          H26   1.083       .  S
C19          C20   1.411       .  A
C20          C21   1.395       .  A
C20         C522   1.437       .  S
C21          C22   1.393       .  A
C21          H28   1.086       .  S
C22         C520   1.445       .  S
H25         C557   1.083       .  S
C29          C30   1.398       .  A
C29          C34   1.412       .  A
C29         C518   1.444   1_545  S
C30          C31   1.398       .  A
C30          H49   1.086       .  S
C31          C32   1.418       .  A
C31         C537   1.452       .  S
C32          C33   1.422       .  A
C32          C39   1.407       .  A
C33          C34   1.417       .  A
C33          C38   1.422       .  A
C34          C35   1.408       .  A
C35          C36   1.393       .  A
C35         H585   1.083   1_545  S
C36          C37   1.404       .  A
C36          H46   1.083       .  S
C37          C38   1.422       .  A
C37          C44   1.415       .  A
C38          C41   1.418       .  A
C39          C40   1.396       .  A
C39        H1127   1.083       .  S
C40          C41   1.407       .  A
C40          H48   1.083       .  S
C41          C42   1.414       .  A
C42          C43   1.396       .  A
C42         C513   1.442       .  S
C43          C44   1.394       .  A
C43          H50   1.086       .  S
C44         C515   1.449       .  S
H45         C575   1.083       .  S
H47        C1119   1.083   1_455  S
C51          C52   1.408       .  A
C51          C56   1.417       .  A
C51         C499   1.484       .  S
C52          C53   1.407       .  A
C52         C523   1.459       .  S
C53          C54   1.418       .  A
C53         C512   1.449       .  S
C54          C55   1.422       .  A
C54         C503   1.493       .  S
C55          C56   1.413       .  A
C55         C507   1.461       .  S
C56         C509   1.451       .  S
C57          C58   1.411       .  A
C57          C62   1.414       .  A
C57         C485   1.490       .  S
C58          C59   1.406       .  A
C58         C517   1.447       .  S
C59          C60   1.417       .  A
C59         C497   1.449       .  S
C60          C61   1.414       .  A
C60         C490   1.497       .  S
C61          C62   1.409       .  A
C61         C495   1.446       .  S
C62         C493   1.450       .  S
C63          C64   1.395       .  A
C63          C68   1.413       .  A
C63         C511   1.441       .  S
C64          C65   1.394       .  A
C64          H83   1.086       .  S
C65          C66   1.411       .  A
C65         C498   1.443       .  S
C66          C67   1.421       .  A
C66          C73   1.404       .  A
C67          C68   1.418       .  A
C67          C72   1.419       .  A
C68          C69   1.407       .  A
C69          C70   1.396       .  A
C69        H1159   1.083       .  S
C70          C71   1.406       .  A
C70          H80   1.083       .  S
C71          C72   1.421       .  A
C71          C78   1.416       .  A
C72          C75   1.417       .  A
C73          C74   1.391       .  A
C73          H81   1.083       .  S
C74          C75   1.407       .  A
C74          H82   1.083       .  S
C75          C76   1.409       .  A
C76          C77   1.395       .  A
C76         C484   1.439       .  S
C77          C78   1.396       .  A
C77          H84   1.086       .  S
C78         C482   1.446       .  S
H79        C1149   1.083   1_455  S
C85          C86   1.413       .  A
C85         C630   1.413   1_544  A
C85         C469   1.491   1_554  S
C86          C87   1.409       .  A
C86         C516   1.456       .  S
C87          C88   1.417   1_545  A
C87         C521   1.443       .  S
C88         C629   1.413   1_554  A
C88         C473   1.492       .  S
C89          C90   1.411       .  A
C89         C628   1.421       .  A
C89         C477   1.458       .  S
C90         C625   1.414   1_556  A
C90         C480   1.448       .  S
C91          C92   1.414   1_556  A
C91          C96   1.406       .  A
C91         C462   1.489       .  S
C92          C93   1.409       .  A
C92         C483   1.443       .  S
C93          C94   1.416   1_554  A
C93         C519   1.451       .  S
C94          C95   1.418       .  A
C94         C458   1.498       .  S
C95          C96   1.408       .  A
C95         C467   1.443       .  S
C96         C466   1.455       .  S
C97         C102   1.420   1_655  A
C97        C1178   1.414   1_556  A
C97         C446   1.502       .  S
C98          C99   1.410       .  A
C98        C1177   1.414   1_554  A
C98         C514   1.449       .  S
C99        C1180   1.418       .  A
C99         C481   1.453       .  S
C100        C101   1.420   1_554  A
C100       C1179   1.418   1_455  A
C100        C449   1.499       .  S
C101        C102   1.415       .  A
C101        C453   1.455       .  S
C102        C455   1.456       .  S
C103        C104   1.415       .  A
C103        C108   1.415       .  A
C103        C429   1.500       .  S
C104        C105   1.412       .  A
C104        C443   1.449       .  S
C105        C106   1.420       .  A
C105        C441   1.453       .  S
C106        C107   1.422       .  A
C106        C434   1.505       .  S
C107        C108   1.414       .  A
C107        C438   1.452       .  S
C108        C439   1.453       .  S
C109        C110   1.396       .  A
C109        C114   1.416       .  A
C109        C456   1.451       .  S
C110        C111   1.396       .  A
C110        H129   1.086       .  S
C111        C112   1.411       .  A
C111        C468   1.438       .  S
C112        C113   1.416       .  A
C112        C119   1.409       .  A
C113        C114   1.423       .  A
C113        C118   1.419       .  A
C114        C115   1.404       .  A
C115        C116   1.394       .  A
C115        H125   1.083       .  S
C116        C117   1.408       .  A
C116       H1206   1.083   1_455  S
C117        C118   1.416       .  A
C117        C124   1.410       .  A
C118        C121   1.423       .  A
C119        C120   1.394       .  A
C119        H127   1.083       .  S
C120        C121   1.404       .  A
C120        H128   1.083       .  S
C121        C122   1.416       .  A
C122        C123   1.392       .  A
C122        C440   1.447       .  S
C123        C124   1.393       .  A
C123        H130   1.086       .  S
C124        C428   1.434   1_455  S
H126       C1196   1.083       .  S
C131        C132   1.400       .  A
C131        C136   1.416       .  A
C131        C454   1.450       .  S
C132        C133   1.400       .  A
C132        H151   1.085       .  S
C133        C134   1.415       .  A
C133        C478   1.453       .  S
C134        C135   1.422       .  A
C134        C141   1.405       .  A
C135        C136   1.419       .  A
C135        C140   1.423       .  A
C136        C137   1.408       .  A
C137        C138   1.395       .  A
C137        H147   1.083       .  S
C138        C139   1.405       .  A
C138       H1228   1.083   1_455  S
C139        C140   1.422       .  A
C139        C146   1.417       .  A
C140        C143   1.419       .  A
C141        C142   1.393       .  A
C141        H149   1.083       .  S
C142        C143   1.407       .  A
C142        H690   1.083       .  S
C143        C144   1.414       .  A
C144        C145   1.398       .  A
C144        C437   1.448       .  S
C145        C146   1.400       .  A
C145        H152   1.086       .  S
C146        C425   1.454   1_455  S
H148       C1218   1.083       .  S
H150        C682   1.083   1_545  S
C153        C154   1.414       .  A
C153        C158   1.416       .  A
C153        C412   1.498       .  S
C154        C155   1.407       .  A
C154        C420   1.456       .  S
C155        C156   1.414       .  A
C155        C427   1.439       .  S
C156        C157   1.415       .  A
C156        C415   1.497       .  S
C157        C158   1.410       .  A
C157        C423   1.457       .  S
C158        C422   1.441       .  S
C159        C160   1.418       .  A
C159        C164   1.417       .  A
C159        C401   1.496       .  S
C160        C161   1.414       .  A
C160        C406   1.453       .  S
C161        C162   1.420       .  A
C161        C426   1.459       .  S
C162        C163   1.418       .  A
C162        C397   1.498       .  S
C163        C164   1.411       .  A
C163        C410   1.450       .  S
C164        C408   1.457       .  S
C165        C166   1.395       .  A
C165        C170   1.412       .  A
C165        C479   1.442       .  S
C166        C167   1.396       .  A
C166        H185   1.086       .  S
C167        C168   1.417       .  A
C167        C465   1.448       .  S
C168        C169   1.422       .  A
C168        C175   1.405       .  A
C169        C170   1.418       .  A
C169        C174   1.422       .  A
C170        C171   1.407       .  A
C171        C172   1.393       .  A
C171        H181   1.083       .  S
C172        C173   1.405       .  A
C172        H722   1.083       .  S
C173        C174   1.422       .  A
C173        C180   1.415       .  A
C174        C177   1.418       .  A
C175        C176   1.396       .  A
C175        H183   1.083       .  S
C176        C177   1.408       .  A
C176        H184   1.083       .  S
C177        C178   1.415       .  A
C178        C179   1.400       .  A
C178        C405   1.448       .  S
C179        C180   1.399       .  A
C179        H186   1.085       .  S
C180        C419   1.453       .  S
H182        C712   1.083   1_545  S
C187        C188   1.400       .  A
C187        C192   1.417       .  A
C187        C508   1.455       .  S
C188        C189   1.399       .  A
C188        H207   1.085       .  S
C189        C190   1.412       .  A
C189        C534   1.445       .  S
C190        C191   1.417       .  A
C190        C197   1.409       .  A
C191        C192   1.423       .  A
C191       C1276   1.421   1_455  A
C192        C193   1.405       .  A
C193       C1274   1.395   1_455  A
C193        H203   1.083       .  S
C194        C195   1.408       .  A
C194       C1273   1.395       .  A
C194        H204   1.083       .  S
C195        C196   1.418       .  A
C195        C202   1.414       .  A
C196        C199   1.423       .  A
C196       C1271   1.421       .  A
C197       C1278   1.393   1_455  A
C197        H205   1.083       .  S
C198        C199   1.404       .  A
C198       C1277   1.393       .  A
C198        H206   1.083       .  S
C199        C200   1.414       .  A
C200        C201   1.396       .  A
C200        C424   1.450       .  S
C201        C202   1.396       .  A
C201        H208   1.086       .  S
C202        C409   1.444       .  S
C209        C210   1.391       .  A
C209        C214   1.416       .  A
C209        C536   1.447       .  S
C210        C211   1.393       .  A
C210        H229   1.087       .  S
C211        C212   1.415       .  A
C211        C496   1.439       .  S
C212        C213   1.419       .  A
C212        C219   1.408       .  A
C213        C214   1.423       .  A
C213        C218   1.422       .  A
C214        C215   1.405       .  A
C215        C216   1.394       .  A
C215        H225   1.083       .  S
C216        C217   1.407       .  A
C216        H226   1.083       .  S
C217        C218   1.418       .  A
C217        C224   1.412       .  A
C218        C221   1.423       .  A
C219        C220   1.398       .  A
C219        H227   1.083       .  S
C220        C221   1.406       .  A
C220        H228   1.083       .  S
C221        C222   1.419       .  A
C222        C223   1.395       .  A
C222        C407   1.451       .  S
C223        C224   1.395       .  A
C223        H230   1.086       .  S
C224        C444   1.442       .  S
C231        C232   1.397       .  A
C231        C236   1.413       .  A
C231        C494   1.444       .  S
C232        C233   1.397       .  A
C232        H251   1.086       .  S
C233        C234   1.414       .  A
C233        C510   1.447       .  S
C234        C235   1.420       .  A
C234        C241   1.406       .  A
C235        C236   1.418       .  A
C235        C780   1.419       .  A
C236        C237   1.408       .  A
C237        C778   1.394       .  A
C237        H247   1.083       .  S
C238        C239   1.408       .  A
C238        C777   1.394   1_545  A
C238        H248   1.083       .  S
C239        C240   1.415       .  A
C239        C246   1.411       .  A
C240        C243   1.422       .  A
C240        C775   1.420   1_545  A
C241        C782   1.393       .  A
C241        H249   1.083       .  S
C242        C243   1.404       .  A
C242        C781   1.393   1_545  A
C242        H250   1.083       .  S
C243        C244   1.416       .  A
C244        C245   1.392       .  A
C244        C442   1.447       .  S
C245        C246   1.394       .  A
C245        H252   1.086       .  S
C246        C421   1.435       .  S
O253        C288   1.234       .  S
O253       Mg261   2.170   1_556  S
O253       Mg795   2.146   1_545  S
C254        H293   1.081       .  S
C254        O267   1.236       .  S
C254        O291   1.270       .  A
Mg255       O284   2.149   1_556  S
Mg255       O793   2.157       .  S
Mg255       O299   2.303   1_556  S
Mg255       O295   2.280       .  S
Mg255       O266   2.295       .  S
O256        C277   1.234       .  S
O256       Mg298   2.156   1_556  S
O256       Mg281   2.136       .  S
O257       C1368   1.267   1_455  A
O257       Mg281   2.289       .  S
C258       C1530   1.466       .  S
C258        O260   1.268       .  A
C258       O1352   1.268       .  A
O259        C827   1.269       .  A
O259       Mg261   2.300   1_565  S
O260       Mg292   2.261       .  S
Mg261      O1347   2.147       .  S
Mg261       O275   2.268       .  S
Mg261       O263   2.349       .  S
C262        C474   1.459       .  S
C262        O268   1.271   1_565  A
C262        O840   1.274       .  A
O263       C1350   1.280   1_554  A
H264        C277   1.081       .  S
C265        H290   1.081       .  S
C265        O279   1.237       .  S
C265       O1360   1.271       .  A
O266        C289   1.269       .  A
O267       Mg281   2.158   1_554  S
O267      Mg1341   2.146   1_455  S
O268       Mg298   2.277   1_556  S
C269        C457   1.465       .  S
C269        O282   1.271       .  A
C269        O274   1.267       .  A
C270        C445   1.476       .  S
C270        O297   1.266       .  A
C270       O1343   1.280   1_456  A
Mg271       O279   2.175   1_556  S
Mg271      O1358   2.124   1_455  S
Mg271       O272   2.278   1_556  S
Mg271       O273   2.291       .  S
Mg271       O300   2.191       .  S
O272       C1338   1.268       .  A
O273        C817   1.267       .  A
O274       Mg281   2.265   1_554  S
O275        C294   1.274       .  A
O276        C296   1.270   1_554  A
O276       Mg292   2.282       .  S
C277        O813   1.268       .  A
O278        C289   1.235       .  S
O278       Mg292   2.159   1_556  S
O278      Mg1351   2.125       .  S
O279       Mg838   2.166       .  S
O280       C1345   1.271       .  A
O280       Mg292   2.298       .  S
Mg281       O297   2.222       .  S
O282       Mg298   2.282       .  S
H283        C288   1.081       .  S
O284        C287   1.234       .  S
O284       Mg292   2.130       .  S
H285        C287   1.081       .  S
H286        C289   1.081       .  S
C287        O799   1.268       .  A
C288       O1337   1.267       .  A
O291       Mg298   2.296       .  S
C294        C470   1.460       .  S
C294        O839   1.273   1_545  A
O295        C296   1.275       .  A
C296        C461   1.472       .  S
Mg298       O819   2.148   1_545  S
O299        C834   1.274       .  A
O300        C802   1.263       .  A
O301        C336   1.234       .  S
O301       Mg303   2.157       .  S
O301       Mg309   2.162       .  S
C302        H341   1.081       .  S
C302        O315   1.235       .  S
C302        O339   1.270       .  A
Mg303       O332   2.159       .  S
Mg303       O347   2.305       .  S
Mg303       O343   2.280       .  S
Mg303       O314   2.294       .  S
O304        C325   1.235       .  S
O304       Mg346   2.158       .  S
O304       Mg329   2.141       .  S
O305        C336   1.269       .  A
O305       Mg329   2.299       .  S
C306        C486   1.463       .  S
C306        O308   1.272       .  A
C306        O320   1.272       .  A
O307        C335   1.269       .  A
O307       Mg309   2.299       .  S
O308       Mg340   2.270       .  S
Mg309       O315   2.163       .  S
Mg309       O323   2.288       .  S
Mg309       O311   2.328       .  S
C310        C529   1.463       .  S
C310        O348   1.271       .  A
C310        O316   1.268       .  A
O311        C318   1.278       .  A
H312        C325   1.081       .  S
C313        H338   1.081       .  S
C313        O327   1.235       .  S
C313        O328   1.268       .  A
O314        C337   1.270       .  A
O315       Mg329   2.164       .  S
O316       Mg346   2.265       .  S
C317        C504   1.470       .  S
C317        O330   1.265       .  A
C317        O322   1.274       .  A
C318        C489   1.471       .  S
C318        O345   1.267       .  A
Mg319       O326   2.141       .  S
Mg319       O327   2.164       .  S
Mg319       O320   2.288       .  S
Mg319       O321   2.296       .  S
Mg319       O348   2.275       .  S
O321        C325   1.269       .  A
O322       Mg329   2.305       .  S
O323        C342   1.275       .  A
O324        C344   1.272       .  A
O324       Mg340   2.291       .  S
O326        C337   1.236       .  S
O326       Mg340   2.162       .  S
O327       Mg346   2.124       .  S
O328       Mg340   2.290       .  S
Mg329       O345   2.228       .  S
O330       Mg346   2.226       .  S
H331        C336   1.081       .  S
O332        C335   1.235       .  S
O332       Mg340   2.154       .  S
H333        C335   1.081       .  S
H334        C337   1.081       .  S
O339       Mg346   2.303       .  S
C342        C525   1.471       .  S
C342        O347   1.275       .  A
O343        C344   1.273       .  A
C344        C500   1.467       .  S
O349        C384   1.234       .  S
O349       Mg351   2.146       .  S
O349       Mg357   2.156       .  S
C350        H389   1.081       .  S
C350        O363   1.235       .  S
C350        O387   1.268       .  A
Mg351       O380   2.162       .  S
Mg351       O395   2.314       .  S
Mg351       O391   2.241       .  S
Mg351       O362   2.300       .  S
O352        C373   1.236       .  S
O352       Mg394   2.157       .  S
O352       Mg377   2.151       .  S
O353        C384   1.268       .  A
O353       Mg377   2.297       .  S
C354        C430   1.470       .  S
C354        O356   1.276       .  A
C354        O368   1.273       .  A
O355        C383   1.270       .  A
O355       Mg357   2.303       .  S
O356       Mg388   2.294       .  S
Mg357       O363   2.133       .  S
Mg357       O371   2.248       .  S
Mg357       O359   2.274       .  S
C358        C402   1.464       .  S
C358        O396   1.272       .  A
C358        O364   1.266       .  A
O359        C366   1.270       .  A
H360        C373   1.081       .  S
C361        H386   1.081       .  S
C361        O375   1.234       .  S
C361        O376   1.269       .  A
O362        C385   1.269       .  A
O363       Mg377   2.171       .  S
O364       Mg394   2.264       .  S
C365        C411   1.464       .  S
C365        O378   1.264       .  A
C365        O370   1.277       .  A
C366        C433   1.469       .  S
C366        O393   1.274       .  A
Mg367       O374   2.153       .  S
Mg367       O375   2.149       .  S
Mg367       O368   2.290       .  S
Mg367       O369   2.300       .  S
Mg367       O396   2.288       .  S
O369        C373   1.270       .  A
O370       Mg377   2.318       .  S
O371        C390   1.268       .  A
O372        C392   1.278       .  A
O372       Mg388   2.326       .  S
O374        C385   1.235       .  S
O374       Mg388   2.163       .  S
O375       Mg394   2.132       .  S
O376       Mg388   2.297       .  S
Mg377       O393   2.288       .  S
O378       Mg394   2.210       .  S
H379        C384   1.081       .  S
O380        C383   1.236       .  S
O380       Mg388   2.168       .  S
H381        C383   1.081       .  S
H382        C385   1.081       .  S
O387       Mg394   2.288       .  S
C390        C398   1.477       .  S
C390        O395   1.275       .  A
O391        C392   1.269       .  A
C392        C416   1.473   1_455  S
C397        H399   1.087       .  S
C397       C1478   1.344       .  D
C398        H400   1.085       .  S
C398       C1477   1.345   1_455  D
C401        H403   1.088       .  S
C401        C402   1.345       .  D
C402        H404   1.085       .  S
C405        C406   1.208       .  T
C407        C408   1.211       .  T
C409        C410   1.205       .  T
C411        H413   1.086       .  S
C411        C952   1.336       .  D
C412        H414   1.087       .  S
C412        C951   1.344   1_545  D
C415        H417   1.087       .  S
C415       C1496   1.342       .  D
C416        H418   1.086       .  S
C416       C1495   1.342       .  D
C419        C960   1.211       .  T
C420        C959   1.208       .  T
C421        C422   1.200       .  T
C423        C424   1.209       .  T
C425       C1506   1.212       .  T
C426       C1505   1.212       .  T
C427       C1508   1.198       .  T
C428       C1507   1.199       .  T
C429        H431   1.088       .  S
C429        C430   1.346       .  D
C430        H432   1.085       .  S
C433        H435   1.083       .  S
C433        C974   1.348       .  D
C434        H436   1.088       .  S
C434        C973   1.350   1_545  D
C437        C978   1.208       .  T
C438        C977   1.207   1_545  T
C439        C440   1.208       .  T
C441        C442   1.208       .  T
C443        C444   1.204       .  T
C445        H447   1.086       .  S
C445        C446   1.340   1_455  D
C446       H1528   1.087       .  S
H448       C1526   1.087       .  S
C449       H1531   1.088   1_554  S
C449        C450   1.347       .  D
C450       C1338   1.466       .  S
C450        H452   1.084       .  S
H451       C1529   1.088   1_556  S
C453        C454   1.209       .  T
C455        C456   1.210       .  T
C457        H459   1.084       .  S
C457        C458   1.347   1_554  D
C458        H460   1.088       .  S
C461        H463   1.087       .  S
C461        C462   1.338       .  D
C462        H464   1.087   1_556  S
C465        C466   1.208       .  T
C467        C468   1.202       .  T
C469       H1011   1.088       .  S
C469        C470   1.341   1_556  D
C470        H472   1.085   1_545  S
H471       C1009   1.088   1_556  S
C473        H475   1.088       .  S
C473        C474   1.343   1_554  D
C474       H1016   1.085   1_565  S
H476       C1014   1.085       .  S
C477        C478   1.212       .  T
C479        C480   1.204       .  T
C481        C482   1.208       .  T
C483        C484   1.202       .  T
C485        H487   1.088       .  S
C485       C1026   1.342       .  D
C486        H488   1.085       .  S
C486       C1025   1.342   1_545  D
C489        H491   1.085       .  S
C489        C490   1.341       .  D
C490        H492   1.087       .  S
C493        C494   1.206       .  T
C495        C496   1.203       .  T
C497        C498   1.205       .  T
C499        H501   1.087       .  S
C499       C1040   1.337       .  D
C500        H502   1.085   1_545  S
C500       C1039   1.345   1_545  D
C503        H505   1.087   1_455  S
C503       C1584   1.341       .  D
C504        H506   1.085       .  S
C504       C1583   1.341       .  D
C507        C508   1.213       .  T
C509        C510   1.207       .  T
C511       C1592   1.204       .  T
C512       C1591   1.205   1_455  T
C513        C514   1.204       .  T
C515        C516   1.209       .  T
C517       C1058   1.203       .  T
C518       C1057   1.205       .  T
C519        C520   1.206       .  T
C521        C522   1.201       .  T
C523       C1064   1.211       .  T
C524       C1063   1.207   1_545  T
C525        H527   1.085       .  S
C525        C526   1.347       .  D
C526        H528   1.088       .  S
C529        H531   1.084       .  S
C529       C1610   1.344       .  D
C530        H532   1.088       .  S
C530       C1609   1.344   1_455  D
C533        C534   1.205       .  T
C535        C536   1.208       .  T
C537       C1618   1.211       .  T
C538       C1617   1.212       .  T
C539        C540   1.200       .  T
C541        C542   1.414       .  A
C541        C546   1.411       .  A
C541       C1066   1.490       .  S
C542        C543   1.412       .  A
C542       C1080   1.448       .  S
C543        C544   1.416       .  A
C543       C1078   1.453       .  S
C544        C545   1.415       .  A
C544       C1070   1.493       .  S
C545        C546   1.409       .  A
C545       C1073   1.452       .  S
C546       C1075   1.449       .  S
C547        C548   1.396       .  A
C547        C552   1.413       .  A
C547       C1079   1.444       .  S
C548        C549   1.396       .  A
C548        H567   1.086       .  S
C549        C550   1.418       .  A
C549       C1064   1.452       .  S
C550        C551   1.423       .  A
C550        C557   1.406       .  A
C551        C552   1.419       .  A
C551        C556   1.422       .  A
C552        C553   1.407       .  A
C553        C554   1.394       .  A
C553        H563   1.083       .  S
C554        C555   1.405       .  A
C554        H564   1.083       .  S
C555        C556   1.422       .  A
C555        C562   1.415       .  A
C556        C559   1.419       .  A
C557        C558   1.397       .  A
C558        C559   1.407       .  A
C558        H566   1.083       .  S
C559        C560   1.415       .  A
C560        C561   1.393       .  A
C560       C1062   1.442       .  S
C561        C562   1.392       .  A
C561        H568   1.087       .  S
C562       C1060   1.445       .  S
C569        C570   1.397       .  A
C569        C574   1.412       .  A
C569       C1058   1.440       .  S
C570        C571   1.396       .  A
C570        H589   1.086       .  S
C571        C572   1.415       .  A
C571       C1077   1.448       .  S
C572        C573   1.421       .  A
C572        C579   1.405       .  A
C573        C574   1.416       .  A
C573        C578   1.420       .  A
C574        C575   1.408       .  A
C575        C576   1.393       .  A
C576        C577   1.405       .  A
C576        H586   1.083       .  S
C577        C578   1.422       .  A
C577        C584   1.415       .  A
C578        C581   1.417       .  A
C579        C580   1.393       .  A
C579       H1667   1.083       .  S
C580        C581   1.407       .  A
C580        H588   1.083       .  S
C581        C582   1.412       .  A
C582        C583   1.395       .  A
C582       C1053   1.439       .  S
C583        C584   1.395       .  A
C583        H590   1.086       .  S
C584       C1055   1.447       .  S
H587       C1659   1.083   1_455  S
C591        C592   1.413       .  A
C591        C596   1.416       .  A
C591       C1039   1.497       .  S
C592        C593   1.407       .  A
C592       C1063   1.452       .  S
C593        C594   1.413       .  A
C593       C1052   1.442       .  S
C594        C595   1.418       .  A
C594       C1043   1.496       .  S
C595        C596   1.412       .  A
C595       C1047   1.460       .  S
C596       C1049   1.443       .  S
C597        C598   1.414       .  A
C597        C602   1.415       .  A
C597       C1025   1.492       .  S
C598        C599   1.409       .  A
C598       C1057   1.450       .  S
C599        C600   1.415       .  A
C599       C1037   1.450       .  S
C600        C601   1.417       .  A
C600       C1030   1.497       .  S
C601        C602   1.412       .  A
C601       C1035   1.445       .  S
C602       C1033   1.457       .  S
C603        C604   1.392       .  A
C603        C608   1.411       .  A
C603       C1051   1.435       .  S
C604        C605   1.391       .  A
C604        H623   1.086       .  S
C605        C606   1.414       .  A
C605       C1038   1.443       .  S
C606        C607   1.422       .  A
C606        C613   1.404       .  A
C607        C608   1.417       .  A
C607        C612   1.419       .  A
C608        C609   1.407       .  A
C609        C610   1.394       .  A
C609       H1699   1.083       .  S
C610        C611   1.406       .  A
C610        H620   1.083       .  S
C611        C612   1.422       .  A
C611        C618   1.415       .  A
C612        C615   1.417       .  A
C613        C614   1.394       .  A
C613        H621   1.083       .  S
C614        C615   1.409       .  A
C614        H622   1.083       .  S
C615        C616   1.412       .  A
C616        C617   1.397       .  A
C616       C1024   1.443       .  S
C617        C618   1.398       .  A
C617        H624   1.086       .  S
C618       C1022   1.450       .  S
H619       C1689   1.083   1_455  S
C625        C626   1.412       .  A
C625       C1009   1.490       .  S
C626        C627   1.409       .  A
C626       C1056   1.453       .  S
C627        C628   1.416   1_554  A
C627       C1061   1.449       .  S
C628       C1013   1.498       .  S
C629        C630   1.405       .  A
C629       C1017   1.455       .  S
C630       C1020   1.441       .  S
C631        C632   1.418   1_556  A
C631        C636   1.419       .  A
C631       C1002   1.497       .  S
C632        C633   1.407       .  A
C632       C1023   1.448       .  S
C633        C634   1.406   1_554  A
C633       C1059   1.452       .  S
C634        C635   1.415       .  A
C634        C998   1.493       .  S
C635        C636   1.414       .  A
C635       C1007   1.444       .  S
C636       C1006   1.455       .  S
C637       C1718   1.416   1_455  A
C637        C642   1.415   1_554  A
C637        C986   1.497   1_455  S
C638       C1717   1.415       .  A
C638        C639   1.410       .  A
C638       C1054   1.445       .  S
C639       C1720   1.417       .  A
C639       C1021   1.456       .  S
C640       C1719   1.416   1_455  A
C640        C641   1.414   1_554  A
C640        C989   1.497       .  S
C641        C642   1.410       .  A
C641        C993   1.446       .  S
C642        C995   1.451       .  S
C643        C644   1.413       .  A
C643        C648   1.418       .  A
C643        C969   1.501       .  S
C644        C645   1.410       .  A
C644        C983   1.452       .  S
C645        C646   1.418       .  A
C645        C981   1.444       .  S
C646        C647   1.417       .  A
C646        C974   1.502       .  S
C647        C648   1.412       .  A
C647        C978   1.455       .  S
C648        C979   1.447       .  S
C649        C650   1.396       .  A
C649        C654   1.415       .  A
C649        C996   1.445       .  S
C650        C651   1.394       .  A
C650        H669   1.086       .  S
C651        C652   1.410       .  A
C651       C1008   1.441       .  S
C652        C653   1.418       .  A
C652        C659   1.406       .  A
C653        C654   1.420       .  A
C653        C658   1.419       .  A
C654        C655   1.406       .  A
C655        C656   1.396       .  A
C655        H665   1.083       .  S
C656        C657   1.407       .  A
C656       H1746   1.083   1_455  S
C657        C658   1.419       .  A
C657        C664   1.414       .  A
C658        C661   1.419       .  A
C659        C660   1.391       .  A
C659        H667   1.083       .  S
C660        C661   1.405       .  A
C660        H668   1.083       .  S
C661        C662   1.411       .  A
C662        C663   1.395       .  A
C662        C980   1.441       .  S
C663        C664   1.396       .  A
C663        H670   1.086       .  S
C664        C968   1.444   1_455  S
H666       C1736   1.083       .  S
C671        C672   1.394       .  A
C671        C676   1.413       .  A
C671        C994   1.440       .  S
C672        C673   1.393       .  A
C672        H691   1.086       .  S
C673        C674   1.416       .  A
C673       C1018   1.446       .  S
C674        C675   1.422       .  A
C674        C681   1.405       .  A
C675        C676   1.418       .  A
C675        C680   1.421       .  A
C676        C677   1.407       .  A
C677        C678   1.394       .  A
C677        H687   1.083       .  S
C678        C679   1.406       .  A
C678       H1768   1.083   1_455  S
C679        C680   1.421       .  A
C679        C686   1.415       .  A
C680        C683   1.418       .  A
C681        C682   1.395       .  A
C681        H689   1.083       .  S
C682        C683   1.408       .  A
C683        C684   1.414       .  A
C684        C685   1.399       .  A
C684        C977   1.447       .  S
C685        C686   1.399       .  A
C685        H692   1.086       .  S
C686        C965   1.450   1_455  S
H688       C1758   1.083       .  S
C693        C694   1.420       .  A
C693        C698   1.413       .  A
C693        C952   1.489       .  S
C694        C695   1.410       .  A
C694        C960   1.458       .  S
C695        C696   1.416       .  A
C695        C967   1.451       .  S
C696        C697   1.417       .  A
C696        C955   1.490       .  S
C697        C698   1.405       .  A
C697        C963   1.455       .  S
C698        C962   1.449       .  S
C699        C700   1.416       .  A
C699        C704   1.417       .  A
C699        C941   1.501       .  S
C700        C701   1.412       .  A
C700        C946   1.448       .  S
C701        C702   1.418       .  A
C701        C966   1.456       .  S
C702        C703   1.415       .  A
C702        C937   1.497       .  S
C703        C704   1.410       .  A
C703        C950   1.450       .  S
C704        C948   1.452       .  S
C705        C706   1.395       .  A
C705        C710   1.409       .  A
C705       C1019   1.435       .  S
C706        C707   1.395       .  A
C706        H725   1.086       .  S
C707        C708   1.418       .  A
C707       C1005   1.449       .  S
C708        C709   1.422       .  A
C708        C715   1.405       .  A
C709        C710   1.415       .  A
C709        C714   1.420       .  A
C710        C711   1.408       .  A
C711        C712   1.391       .  A
C711        H721   1.083       .  S
C712        C713   1.404       .  A
C713        C714   1.422       .  A
C713        C720   1.413       .  A
C714        C717   1.417       .  A
C715        C716   1.396       .  A
C715        H723   1.083       .  S
C716        C717   1.409       .  A
C716        H724   1.083       .  S
C717        C718   1.414       .  A
C718        C719   1.397       .  A
C718        C945   1.442       .  S
C719        C720   1.396       .  A
C719        H726   1.086       .  S
C720        C959   1.448   1_565  S
C727        C728   1.401       .  A
C727        C732   1.416       .  A
C727       C1048   1.454       .  S
C728        C729   1.400       .  A
C728        H747   1.085       .  S
C729        C730   1.413       .  A
C729       C1074   1.447       .  S
C730        C731   1.418       .  A
C730        C737   1.408       .  A
C731        C732   1.422       .  A
C731       C1816   1.421   1_455  A
C732        C733   1.406       .  A
C733       C1814   1.394   1_455  A
C733        H743   1.083       .  S
C734       C1813   1.395       .  A
C734        C735   1.407       .  A
C734        H744   1.083       .  S
C735        C736   1.418       .  A
C735        C742   1.414       .  A
C736       C1811   1.421       .  A
C736        C739   1.421       .  A
C737       C1818   1.392   1_455  A
C737        H745   1.083       .  S
C738       C1817   1.392       .  A
C738        C739   1.404       .  A
C738        H746   1.083       .  S
C739        C740   1.414       .  A
C740        C741   1.397       .  A
C740        C964   1.448       .  S
C741        C742   1.396       .  A
C741        H748   1.086       .  S
C742        C949   1.443       .  S
C749        C750   1.393       .  A
C749        C754   1.415       .  A
C749       C1076   1.443       .  S
C750        C751   1.393       .  A
C750        H769   1.086       .  S
C751        C752   1.411       .  A
C751       C1036   1.440       .  S
C752        C753   1.419       .  A
C752        C759   1.406       .  A
C753        C754   1.421       .  A
C753        C758   1.419       .  A
C754        C755   1.406       .  A
C755        C756   1.395       .  A
C755        H765   1.083       .  S
C756        C757   1.407       .  A
C756        H766   1.083       .  S
C757        C758   1.419       .  A
C757        C764   1.414       .  A
C758        C761   1.420       .  A
C759        C760   1.393       .  A
C759        H767   1.083       .  S
C760        C761   1.406       .  A
C760        H768   1.083       .  S
C761        C762   1.413       .  A
C762        C763   1.396       .  A
C762        C947   1.445       .  S
C763        C764   1.396       .  A
C763        H770   1.086       .  S
C764        C984   1.443       .  S
C771        C772   1.396       .  A
C771        C776   1.417       .  A
C771       C1034   1.451       .  S
C772        C773   1.396       .  A
C772        H791   1.086       .  S
C773        C774   1.411       .  A
C773       C1050   1.438       .  S
C774        C775   1.416       .  A
C774        C781   1.409       .  A
C775        C776   1.423       .  A
C776        C777   1.405       .  A
C777        H787   1.083       .  S
C778        C779   1.405       .  A
C778        H788   1.083       .  S
C779        C780   1.420       .  A
C779        C786   1.413       .  A
C780        C783   1.418       .  A
C781        H789   1.083       .  S
C782        C783   1.406       .  A
C782        H790   1.083       .  S
C783        C784   1.412       .  A
C784        C785   1.392       .  A
C784        C982   1.438       .  S
C785        C786   1.393       .  A
C785        H792   1.086       .  S
C786        C961   1.441       .  S
O793        C828   1.237       .  S
O793       Mg801   2.161   1_556  S
C794        H833   1.081       .  S
C794        O807   1.234       .  S
C794        O831   1.270       .  A
Mg795       O824   2.154   1_556  S
Mg795       O839   2.287   1_556  S
Mg795       O835   2.283       .  S
Mg795       O806   2.301       .  S
O796        C817   1.233       .  S
O796       Mg838   2.159   1_556  S
O796       Mg821   2.146       .  S
O797       C1908   1.271       .  A
O797       Mg821   2.300   1_655  S
C798       C2070   1.471       .  S
C798        O800   1.266       .  A
C798       O1892   1.278   1_554  A
O799       Mg801   2.295       .  S
O800       Mg832   2.226       .  S
Mg801      O1887   2.159       .  S
Mg801       O815   2.263       .  S
Mg801       O803   2.301   1_554  S
C802       C1014   1.469       .  S
C802        O808   1.280       .  A
O803       C1890   1.273       .  A
H804        C817   1.081       .  S
C805        H830   1.081       .  S
C805        O819   1.235       .  S
C805       O1900   1.268   1_455  A
O806        C829   1.271       .  A
O807      Mg1881   2.159   1_455  S
O807       Mg821   2.155   1_554  S
O808       Mg838   2.348   1_556  S
C809        C997   1.478       .  S
C809        O822   1.278       .  A
C809        O814   1.274   1_554  A
C810        C985   1.468       .  S
C810       O1883   1.273       .  A
C810        O837   1.270   1_655  A
Mg811      O1898   2.150   1_455  S
Mg811       O819   2.169   1_556  S
Mg811       O812   2.335       .  S
Mg811       O813   2.297   1_565  S
Mg811       O840   2.271       .  S
O812       C1878   1.278   1_456  A
O814       Mg821   2.298       .  S
O815        C834   1.272       .  A
O816        C836   1.268       .  A
O816       Mg832   2.270   1_556  S
O818        C829   1.237       .  S
O818      Mg1891   2.149       .  S
O818       Mg832   2.155   1_556  S
O820       C1885   1.268       .  A
O820       Mg832   2.293       .  S
Mg821       O837   2.262       .  S
O822       Mg838   2.298       .  S
H823        C828   1.081       .  S
O824        C827   1.234       .  S
O824       Mg832   2.137       .  S
H825        C827   1.081       .  S
H826        C829   1.081       .  S
C828       O1877   1.271       .  A
O831       Mg838   2.309       .  S
C834       C1010   1.465       .  S
O835        C836   1.272       .  A
C836       C1001   1.466       .  S
O841        C876   1.235       .  S
O841       Mg843   2.162       .  S
O841       Mg849   2.143       .  S
C842        H881   1.081       .  S
C842        O855   1.236       .  S
C842        O879   1.271       .  A
Mg843       O872   2.145       .  S
Mg843       O887   2.312       .  S
Mg843       O883   2.271       .  S
Mg843       O854   2.295       .  S
O844        C865   1.235       .  S
O844       Mg886   2.153       .  S
O844       Mg869   2.156       .  S
O845        C876   1.271       .  A
O845       Mg869   2.313       .  S
C846       C1026   1.461       .  S
C846        O848   1.269       .  A
C846        O860   1.272       .  A
O847        C875   1.271       .  A
O847       Mg849   2.308       .  S
O848       Mg880   2.251       .  S
Mg849       O855   2.168       .  S
Mg849       O863   2.281       .  S
Mg849       O851   2.304       .  S
C850       C1069   1.466       .  S
C850        O888   1.270       .  A
C850        O856   1.271       .  A
O851        C858   1.274       .  A
H852        C865   1.081       .  S
C853        H878   1.081       .  S
C853        O867   1.234       .  S
C853        O868   1.266       .  A
O854        C877   1.269       .  A
O855       Mg869   2.164       .  S
O856       Mg886   2.293       .  S
C857       C1044   1.469       .  S
C857        O870   1.263       .  A
C857        O862   1.280       .  A
C858       C1029   1.469       .  S
C858        O885   1.273       .  A
Mg859       O866   2.132       .  S
Mg859       O867   2.158       .  S
Mg859       O860   2.290       .  S
Mg859       O861   2.299       .  S
Mg859       O888   2.265       .  S
O861        C865   1.269       .  A
O862       Mg869   2.348       .  S
O863        C882   1.273       .  A
O864        C884   1.269       .  A
O864       Mg880   2.276       .  S
O866        C877   1.236       .  S
O866       Mg880   2.165       .  S
O867       Mg886   2.113       .  S
O868       Mg880   2.280       .  S
Mg869       O885   2.278       .  S
O870       Mg886   2.200       .  S
H871        C876   1.081       .  S
O872        C875   1.235       .  S
O872       Mg880   2.149       .  S
H873        C875   1.081       .  S
H874        C877   1.081       .  S
O879       Mg886   2.307       .  S
C882       C1065   1.473       .  S
C882        O887   1.273       .  A
O883        C884   1.274       .  A
C884       C1040   1.470       .  S
O889        C924   1.234       .  S
O889       Mg891   2.139       .  S
O889       Mg897   2.158       .  S
C890        H929   1.081       .  S
C890        O903   1.234       .  S
C890        O927   1.268       .  A
Mg891       O920   2.161       .  S
Mg891       O935   2.298       .  S
Mg891       O931   2.240       .  S
Mg891       O902   2.303       .  S
O892        C913   1.235       .  S
O892       Mg934   2.160       .  S
O892       Mg917   2.167       .  S
O893        C924   1.268       .  A
O893       Mg917   2.292       .  S
C894        C970   1.478       .  S
C894        O896   1.269       .  A
C894        O908   1.275       .  A
O895        C923   1.269       .  A
O895       Mg897   2.298       .  S
O896       Mg928   2.253       .  S
Mg897       O903   2.141       .  S
Mg897       O911   2.249       .  S
Mg897       O899   2.263       .  S
C898        C942   1.475       .  S
C898        O936   1.270       .  A
C898        O904   1.275       .  A
O899        C906   1.269       .  A
H900        C913   1.081       .  S
C901        H926   1.081       .  S
C901        O915   1.234       .  S
C901        O916   1.269       .  A
O902        C925   1.269       .  A
O903       Mg917   2.172       .  S
O904       Mg934   2.308       .  S
C905        C951   1.473       .  S
C905        O918   1.271       .  A
C905        O910   1.277       .  A
C906        C973   1.470       .  S
C906        O933   1.276       .  A
Mg907       O914   2.150       .  S
Mg907       O915   2.156       .  S
Mg907       O908   2.312       .  S
Mg907       O909   2.306       .  S
Mg907       O936   2.253       .  S
O909        C913   1.270       .  A
O910       Mg917   2.313       .  S
O911        C930   1.268       .  A
O912        C932   1.272       .  A
O912       Mg928   2.287       .  S
O914        C925   1.234       .  S
O914       Mg928   2.159       .  S
O915       Mg934   2.160       .  S
O916       Mg928   2.304       .  S
Mg917       O933   2.304       .  S
O918       Mg934   2.255       .  S
H919        C924   1.081       .  S
O920        C923   1.235       .  S
O920       Mg928   2.149       .  S
H921        C923   1.081       .  S
H922        C925   1.081       .  S
O927       Mg934   2.293       .  S
C930        C938   1.473       .  S
C930        O935   1.273       .  A
O931        C932   1.267       .  A
C932        C956   1.467   1_455  S
C937        H939   1.087       .  S
C937       C2018   1.344       .  D
C938        H940   1.085       .  S
C938       C2017   1.345   1_455  D
C941        H943   1.087       .  S
C941        C942   1.346       .  D
C942        H944   1.085       .  S
C945        C946   1.204       .  T
C947        C948   1.206       .  T
C949        C950   1.205       .  T
C951        H953   1.086       .  S
C952        H954   1.087       .  S
C955        H957   1.087       .  S
C955       C2036   1.343       .  D
C956        H958   1.086       .  S
C956       C2035   1.343       .  D
C961        C962   1.204       .  T
C963        C964   1.208       .  T
C965       C2046   1.210       .  T
C966       C2045   1.210       .  T
C967       C2048   1.206       .  T
C968       C2047   1.205       .  T
C969        H971   1.087       .  S
C969        C970   1.345       .  D
C970        H972   1.084       .  S
C973        H975   1.083   1_565  S
C974        H976   1.088       .  S
C979        C980   1.204       .  T
C981        C982   1.202       .  T
C983        C984   1.205       .  T
C985        H987   1.085       .  S
C985        C986   1.346   1_556  D
C986       H2068   1.088   1_655  S
H988       C2066   1.088       .  S
C989       H2071   1.087       .  S
C989        C990   1.340   1_455  D
C990       C1878   1.472       .  S
C990        H992   1.086       .  S
H991       C2069   1.087       .  S
C993        C994   1.203       .  T
C995        C996   1.207       .  T
C997        H999   1.087       .  S
C997        C998   1.340   1_554  D
C998       H1000   1.087       .  S
C1001      H1003   1.084       .  S
C1001      C1002   1.345       .  D
C1002      H1004   1.088   1_556  S
C1005      C1006   1.209       .  T
C1007      C1008   1.203       .  T
C1009      C1010   1.343       .  D
C1010      H1012   1.086       .  S
C1013      H1015   1.087       .  S
C1013      C1014   1.336       .  D
C1017      C1018   1.208       .  T
C1019      C1020   1.200       .  T
C1021      C1022   1.210       .  T
C1023      C1024   1.205       .  T
C1025      H1027   1.088       .  S
C1026      H1028   1.085       .  S
C1029      H1031   1.085       .  S
C1029      C1030   1.346       .  D
C1030      H1032   1.088       .  S
C1033      C1034   1.210       .  T
C1035      C1036   1.203       .  T
C1037      C1038   1.206       .  T
C1039      H1041   1.088   1_565  S
C1040      H1042   1.087       .  S
C1043      H1045   1.087   1_455  S
C1043      C2124   1.336       .  D
C1044      H1046   1.086       .  S
C1044      C2123   1.336       .  D
C1047      C1048   1.212       .  T
C1049      C1050   1.201       .  T
C1051      C2132   1.200       .  T
C1052      C2131   1.200       .  T
C1053      C1054   1.202       .  T
C1055      C1056   1.208       .  T
C1059      C1060   1.206       .  T
C1061      C1062   1.205       .  T
C1065      H1067   1.086       .  S
C1065      C1066   1.344       .  D
C1066      H1068   1.087       .  S
C1069      H1071   1.085       .  S
C1069      C2150   1.344       .  D
C1070      H1072   1.088       .  S
C1070      C2149   1.343   1_455  D
C1073      C1074   1.207       .  T
C1075      C1076   1.205       .  T
C1077      C2158   1.208       .  T
C1078      C2157   1.208       .  T
C1079      C1080   1.205       .  T
C1081      C1082   1.416       .  A
C1081      C1086   1.414       .  A
C1081      C1606   1.497       .  S
C1082      C1083   1.411       .  A
C1082      C1620   1.443       .  S
C1083      C1084   1.416       .  A
C1083      C1618   1.458       .  S
C1084      C1085   1.417       .  A
C1084      C1610   1.495       .  S
C1085      C1086   1.410       .  A
C1085      C1613   1.450       .  S
C1086      C1615   1.452       .  S
C1087      C1088   1.393       .  A
C1087      C1092   1.411       .  A
C1087      C1619   1.437       .  S
C1088      C1089   1.392       .  A
C1088      H1107   1.086       .  S
C1089      C1090   1.414       .  A
C1089      C1604   1.443       .  S
C1090      C1091   1.421       .  A
C1090      C1097   1.405       .  A
C1091      C1092   1.417       .  A
C1091      C1096   1.418       .  A
C1092      C1093   1.406       .  A
C1093      C1094   1.393       .  A
C1093      H1103   1.083       .  S
C1094      C1095   1.406       .  A
C1094      H1104   1.083       .  S
C1095      C1096   1.421       .  A
C1095      C1102   1.414       .  A
C1096      C1099   1.417       .  A
C1097      C1098   1.394       .  A
C1097      H1645   1.083   1_545  S
C1098      C1099   1.407       .  A
C1098      H1106   1.083       .  S
C1099      C1100   1.411       .  A
C1100      C1101   1.395       .  A
C1100      C1602   1.437       .  S
C1101      C1102   1.393       .  A
C1101      H1108   1.086       .  S
C1102      C1600   1.444       .  S
H1105      C1637   1.083       .  S
C1109      C1110   1.399       .  A
C1109      C1114   1.412       .  A
C1109      C1598   1.444   1_545  S
C1110      C1111   1.398       .  A
C1110      H1129   1.085       .  S
C1111      C1112   1.418       .  A
C1111      C1617   1.454   1_655  S
C1112      C1113   1.422       .  A
C1112      C1119   1.406       .  A
C1113      C1114   1.417       .  A
C1113      C1118   1.422       .  A
C1114      C1115   1.408       .  A
C1115      C1116   1.393       .  A
C1115      H1665   1.083   1_545  S
C1116      C1117   1.404       .  A
C1116      H1126   1.083       .  S
C1117      C1118   1.422       .  A
C1117      C1124   1.415       .  A
C1118      C1121   1.418       .  A
C1119      C1120   1.396       .  A
C1120      C1121   1.407       .  A
C1120      H1128   1.083       .  S
C1121      C1122   1.414       .  A
C1122      C1123   1.395       .  A
C1122      C1593   1.441       .  S
C1123      C1124   1.394       .  A
C1123      H1130   1.086       .  S
C1124      C1595   1.448       .  S
H1125      C1655   1.083       .  S
C1131      C1132   1.408       .  A
C1131      C1136   1.417       .  A
C1131      C1579   1.484       .  S
C1132      C1133   1.407       .  A
C1132      C1603   1.459       .  S
C1133      C1134   1.417       .  A
C1133      C1592   1.447       .  S
C1134      C1135   1.421       .  A
C1134      C1583   1.494       .  S
C1135      C1136   1.412       .  A
C1135      C1587   1.460       .  S
C1136      C1589   1.450       .  S
C1137      C1138   1.411       .  A
C1137      C1142   1.413       .  A
C1137      C1565   1.490       .  S
C1138      C1139   1.407       .  A
C1138      C1597   1.447       .  S
C1139      C1140   1.418       .  A
C1139      C1577   1.450       .  S
C1140      C1141   1.415       .  A
C1140      C1570   1.497       .  S
C1141      C1142   1.409       .  A
C1141      C1575   1.446       .  S
C1142      C1573   1.451       .  S
C1143      C1144   1.395       .  A
C1143      C1148   1.415       .  A
C1143      C1591   1.443       .  S
C1144      C1145   1.395       .  A
C1144      H1163   1.086       .  S
C1145      C1146   1.411       .  A
C1145      C1578   1.444       .  S
C1146      C1147   1.421       .  A
C1146      C1153   1.404       .  A
C1147      C1148   1.419       .  A
C1147      C1152   1.420       .  A
C1148      C1149   1.408       .  A
C1149      C1150   1.396       .  A
C1150      C1151   1.406       .  A
C1150      H1160   1.083       .  S
C1151      C1152   1.421       .  A
C1151      C1158   1.417       .  A
C1152      C1155   1.418       .  A
C1153      C1154   1.391       .  A
C1153      H1161   1.083       .  S
C1154      C1155   1.407       .  A
C1154      H1162   1.083       .  S
C1155      C1156   1.410       .  A
C1156      C1157   1.395       .  A
C1156      C1564   1.440       .  S
C1157      C1158   1.396       .  A
C1157      H1164   1.086       .  S
C1158      C1562   1.447       .  S
C1165      C1166   1.413       .  A
C1165      C1710   1.413   1_544  A
C1165      C1549   1.492   1_554  S
C1166      C1167   1.409       .  A
C1166      C1596   1.454       .  S
C1167      C1168   1.415   1_545  A
C1167      C1601   1.443       .  S
C1168      C1709   1.413   1_554  A
C1168      C1553   1.491       .  S
C1169      C1708   1.421       .  A
C1169      C1170   1.411       .  A
C1169      C1557   1.457       .  S
C1170      C1705   1.413   1_556  A
C1170      C1560   1.448       .  S
C1171      C1172   1.414   1_556  A
C1171      C1176   1.406       .  A
C1171      C1542   1.488       .  S
C1172      C1173   1.409       .  A
C1172      C1563   1.444       .  S
C1173      C1174   1.416   1_554  A
C1173      C1599   1.450       .  S
C1174      C1175   1.418       .  A
C1174      C1538   1.498       .  S
C1175      C1176   1.408       .  A
C1175      C1547   1.442       .  S
C1176      C1546   1.456       .  S
C1177      C1182   1.420       .  A
C1177      C1526   1.501       .  S
C1178      C1179   1.410       .  A
C1178      C1594   1.448       .  S
C1179      C1561   1.454       .  S
C1180      C1181   1.419   1_554  A
C1180      C1529   1.498       .  S
C1181      C1182   1.414       .  A
C1181      C1533   1.455       .  S
C1182      C1535   1.455       .  S
C1183      C1184   1.416       .  A
C1183      C1188   1.417       .  A
C1183      C1509   1.502       .  S
C1184      C1185   1.412       .  A
C1184      C1523   1.449       .  S
C1185      C1186   1.419       .  A
C1185      C1521   1.454       .  S
C1186      C1187   1.421       .  A
C1186      C1514   1.503       .  S
C1187      C1188   1.414       .  A
C1187      C1518   1.454       .  S
C1188      C1519   1.452       .  S
C1189      C1190   1.396       .  A
C1189      C1194   1.415       .  A
C1189      C1536   1.450       .  S
C1190      C1191   1.396       .  A
C1190      H1209   1.086       .  S
C1191      C1192   1.410       .  A
C1191      C1548   1.438       .  S
C1192      C1193   1.416       .  A
C1192      C1199   1.409       .  A
C1193      C1194   1.423       .  A
C1193      C1198   1.419       .  A
C1194      C1195   1.404       .  A
C1195      C1196   1.394       .  A
C1195      H1205   1.083       .  S
C1196      C1197   1.408       .  A
C1197      C1198   1.415       .  A
C1197      C1204   1.409       .  A
C1198      C1201   1.423       .  A
C1199      C1200   1.394       .  A
C1199      H1207   1.083       .  S
C1200      C1201   1.404       .  A
C1200      H1208   1.083       .  S
C1201      C1202   1.416       .  A
C1202      C1203   1.391       .  A
C1202      C1520   1.446       .  S
C1203      C1204   1.393       .  A
C1203      H1210   1.086       .  S
C1204      C1508   1.432       .  S
C1211      C1212   1.400       .  A
C1211      C1216   1.416       .  A
C1211      C1534   1.450       .  S
C1212      C1213   1.400       .  A
C1212      H1231   1.085       .  S
C1213      C1214   1.415       .  A
C1213      C1558   1.452       .  S
C1214      C1215   1.421       .  A
C1214      C1221   1.405       .  A
C1215      C1216   1.419       .  A
C1215      C1220   1.423       .  A
C1216      C1217   1.408       .  A
C1217      C1218   1.395       .  A
C1217      H1227   1.083       .  S
C1218      C1219   1.406       .  A
C1219      C1220   1.422       .  A
C1219      C1226   1.418       .  A
C1220      C1223   1.419       .  A
C1221      C1222   1.393       .  A
C1221      H1229   1.083       .  S
C1222      C1223   1.407       .  A
C1222      H1770   1.083       .  S
C1223      C1224   1.414       .  A
C1224      C1225   1.399       .  A
C1224      C1517   1.449       .  S
C1225      C1226   1.400       .  A
C1225      H1232   1.085       .  S
C1226      C1505   1.454       .  S
H1230      C1762   1.083   1_545  S
C1233      C1234   1.415       .  A
C1233      C1238   1.416       .  A
C1233      C1492   1.499       .  S
C1234      C1235   1.408       .  A
C1234      C1500   1.454       .  S
C1235      C1236   1.414       .  A
C1235      C1507   1.441       .  S
C1236      C1237   1.416       .  A
C1236      C1495   1.498       .  S
C1237      C1238   1.411       .  A
C1237      C1503   1.456       .  S
C1238      C1502   1.442       .  S
C1239      C1240   1.419       .  A
C1239      C1244   1.417       .  A
C1239      C1481   1.499       .  S
C1240      C1241   1.415       .  A
C1240      C1486   1.453       .  S
C1241      C1242   1.420       .  A
C1241      C1506   1.459       .  S
C1242      C1243   1.417       .  A
C1242      C1477   1.500       .  S
C1243      C1244   1.411       .  A
C1243      C1490   1.449       .  S
C1244      C1488   1.456       .  S
C1245      C1246   1.395       .  A
C1245      C1250   1.412       .  A
C1245      C1559   1.443       .  S
C1246      C1247   1.396       .  A
C1246      H1265   1.086       .  S
C1247      C1248   1.417       .  A
C1247      C1545   1.449       .  S
C1248      C1249   1.422       .  A
C1248      C1255   1.406       .  A
C1249      C1250   1.418       .  A
C1249      C1254   1.422       .  A
C1250      C1251   1.407       .  A
C1251      C1252   1.392       .  A
C1251      H1261   1.083       .  S
C1252      C1253   1.405       .  A
C1252      H1802   1.083       .  S
C1253      C1254   1.422       .  A
C1253      C1260   1.414       .  A
C1254      C1257   1.419       .  A
C1255      C1256   1.396       .  A
C1255      H1263   1.083       .  S
C1256      C1257   1.408       .  A
C1256      H1264   1.083       .  S
C1257      C1258   1.415       .  A
C1258      C1259   1.400       .  A
C1258      C1485   1.448       .  S
C1259      C1260   1.399       .  A
C1259      H1266   1.085       .  S
C1260      C1499   1.453       .  S
H1262      C1792   1.083   1_545  S
C1267      C1268   1.400       .  A
C1267      C1272   1.417       .  A
C1267      C1588   1.454       .  S
C1268      C1269   1.399       .  A
C1268      H1287   1.085       .  S
C1269      C1270   1.412       .  A
C1269      C1614   1.445       .  S
C1270      C1271   1.417       .  A
C1270      C1277   1.409       .  A
C1271      C1272   1.422       .  A
C1272      C1273   1.405       .  A
C1273      H1283   1.083       .  S
C1274      C1275   1.408       .  A
C1274      H1284   1.083       .  S
C1275      C1276   1.417       .  A
C1275      C1282   1.413       .  A
C1276      C1279   1.423       .  A
C1277      H1285   1.083       .  S
C1278      C1279   1.404       .  A
C1278      H1286   1.083       .  S
C1279      C1280   1.414       .  A
C1280      C1281   1.396       .  A
C1280      C1504   1.449       .  S
C1281      C1282   1.396       .  A
C1281      H1288   1.086       .  S
C1282      C1489   1.443       .  S
C1289      C1290   1.391       .  A
C1289      C1294   1.415       .  A
C1289      C1616   1.445       .  S
C1290      C1291   1.393       .  A
C1290      H1309   1.087       .  S
C1291      C1292   1.414       .  A
C1291      C1576   1.439       .  S
C1292      C1293   1.419       .  A
C1292      C1299   1.407       .  A
C1293      C1294   1.422       .  A
C1293      C1298   1.421       .  A
C1294      C1295   1.405       .  A
C1295      C1296   1.394       .  A
C1295      H1305   1.083       .  S
C1296      C1297   1.407       .  A
C1296      H1306   1.083       .  S
C1297      C1298   1.418       .  A
C1297      C1304   1.412       .  A
C1298      C1301   1.422       .  A
C1299      C1300   1.397       .  A
C1299      H1307   1.083       .  S
C1300      C1301   1.407       .  A
C1300      H1308   1.083       .  S
C1301      C1302   1.418       .  A
C1302      C1303   1.395       .  A
C1302      C1487   1.448       .  S
C1303      C1304   1.395       .  A
C1303      H1310   1.086       .  S
C1304      C1524   1.442       .  S
C1311      C1312   1.397       .  A
C1311      C1316   1.414       .  A
C1311      C1574   1.445       .  S
C1312      C1313   1.397       .  A
C1312      H1331   1.086       .  S
C1313      C1314   1.414       .  A
C1313      C1590   1.446       .  S
C1314      C1315   1.420       .  A
C1314      C1321   1.407       .  A
C1315      C1316   1.419       .  A
C1315      C1860   1.420       .  A
C1316      C1317   1.407       .  A
C1317      C1858   1.394       .  A
C1317      H1327   1.083       .  S
C1318      C1857   1.394   1_545  A
C1318      C1319   1.408       .  A
C1318      H1328   1.083       .  S
C1319      C1320   1.416       .  A
C1319      C1326   1.411       .  A
C1320      C1855   1.420   1_545  A
C1320      C1323   1.423       .  A
C1321      C1862   1.394       .  A
C1321      H1329   1.083       .  S
C1322      C1861   1.393   1_545  A
C1322      C1323   1.404       .  A
C1322      H1330   1.083       .  S
C1323      C1324   1.416       .  A
C1324      C1325   1.393       .  A
C1324      C1522   1.447       .  S
C1325      C1326   1.394       .  A
C1325      H1332   1.086       .  S
C1326      C1501   1.436       .  S
O1333      C1368   1.234       .  S
O1333     Mg1875   2.147   1_545  S
O1333     Mg1341   2.170   1_556  S
C1334      H1373   1.081       .  S
C1334      O1347   1.236       .  S
C1334      O1371   1.270       .  A
Mg1335     O1873   2.159       .  S
Mg1335     O1364   2.150   1_556  S
Mg1335     O1379   2.306   1_556  S
Mg1335     O1375   2.279       .  S
Mg1335     O1346   2.295       .  S
O1336      C1357   1.234       .  S
O1336     Mg1378   2.154   1_556  S
O1336     Mg1361   2.134       .  S
O1337     Mg1361   2.289       .  S
C1338      O1340   1.268   1_455  A
O1339      C1907   1.269       .  A
O1339     Mg1341   2.301   1_565  S
O1340     Mg1372   2.263       .  S
Mg1341     O1355   2.271       .  S
Mg1341     O1343   2.350       .  S
C1342      C1554   1.460       .  S
C1342      O1920   1.273       .  A
C1342      O1348   1.272   1_565  A
H1344      C1357   1.081       .  S
C1345      H1370   1.081       .  S
C1345      O1359   1.237       .  S
O1346      C1369   1.268       .  A
O1347     Mg1361   2.158   1_554  S
O1348     Mg1378   2.280   1_556  S
C1349      C1537   1.466       .  S
C1349      O1362   1.271       .  A
C1349      O1354   1.267       .  A
C1350      C1525   1.475       .  S
C1350      O1377   1.265       .  A
Mg1351     O1359   2.174   1_556  S
Mg1351     O1352   2.279   1_556  S
Mg1351     O1353   2.292       .  S
Mg1351     O1380   2.194       .  S
O1353      C1897   1.267       .  A
O1354     Mg1361   2.266   1_554  S
O1355      C1374   1.274       .  A
O1356      C1376   1.271   1_554  A
O1356     Mg1372   2.283       .  S
C1357      O1893   1.268       .  A
O1358      C1369   1.235       .  S
O1358     Mg1372   2.155   1_556  S
O1359     Mg1918   2.162       .  S
O1360     Mg1372   2.300   1_455  S
Mg1361     O1377   2.219       .  S
O1362     Mg1378   2.283       .  S
H1363      C1368   1.081       .  S
O1364      C1367   1.234       .  S
O1364     Mg1372   2.131       .  S
H1365      C1367   1.081       .  S
H1366      C1369   1.081       .  S
C1367      O1879   1.268       .  A
O1371     Mg1378   2.298       .  S
C1374      C1550   1.461       .  S
C1374      O1919   1.273   1_545  A
O1375      C1376   1.275       .  A
C1376      C1541   1.471       .  S
Mg1378     O1899   2.147   1_545  S
O1379      C1914   1.274       .  A
O1380      C1882   1.263       .  A
O1381      C1416   1.234       .  S
O1381     Mg1383   2.160       .  S
O1381     Mg1389   2.162       .  S
C1382      H1421   1.081       .  S
C1382      O1395   1.235       .  S
C1382      O1419   1.270       .  A
Mg1383     O1412   2.157       .  S
Mg1383     O1427   2.304       .  S
Mg1383     O1423   2.283       .  S
Mg1383     O1394   2.294       .  S
O1384      C1405   1.235       .  S
O1384     Mg1426   2.154       .  S
O1384     Mg1409   2.138       .  S
O1385      C1416   1.269       .  A
O1385     Mg1409   2.299       .  S
C1386      C1566   1.463       .  S
C1386      O1388   1.272       .  A
C1386      O1400   1.273       .  A
O1387      C1415   1.270       .  A
O1387     Mg1389   2.301       .  S
O1388     Mg1420   2.268       .  S
Mg1389     O1395   2.159       .  S
Mg1389     O1403   2.283       .  S
Mg1389     O1391   2.333       .  S
C1390      C1609   1.461       .  S
C1390      O1428   1.271       .  A
C1390      O1396   1.267       .  A
O1391      C1398   1.279       .  A
H1392      C1405   1.081       .  S
C1393      H1418   1.081       .  S
C1393      O1407   1.235       .  S
C1393      O1408   1.268       .  A
O1394      C1417   1.269       .  A
O1395     Mg1409   2.163       .  S
O1396     Mg1426   2.261       .  S
C1397      C1584   1.469   1_655  S
C1397      O1410   1.264       .  A
C1397      O1402   1.273       .  A
C1398      C1569   1.471       .  S
C1398      O1425   1.267       .  A
Mg1399     O1406   2.140       .  S
Mg1399     O1407   2.162       .  S
Mg1399     O1400   2.293       .  S
Mg1399     O1401   2.299       .  S
Mg1399     O1428   2.272       .  S
O1401      C1405   1.269       .  A
O1402     Mg1409   2.304       .  S
O1403      C1422   1.275       .  A
O1404      C1424   1.273       .  A
O1404     Mg1420   2.294       .  S
O1406      C1417   1.236       .  S
O1406     Mg1420   2.162       .  S
O1407     Mg1426   2.126       .  S
O1408     Mg1420   2.290       .  S
Mg1409     O1425   2.225       .  S
O1410     Mg1426   2.227       .  S
H1411      C1416   1.081       .  S
O1412      C1415   1.235       .  S
O1412     Mg1420   2.151       .  S
H1413      C1415   1.081       .  S
H1414      C1417   1.081       .  S
O1419     Mg1426   2.302       .  S
C1422      C1605   1.470       .  S
C1422      O1427   1.275       .  A
O1423      C1424   1.274       .  A
C1424      C1580   1.469       .  S
O1429      C1464   1.235       .  S
O1429     Mg1431   2.148       .  S
O1429     Mg1437   2.158       .  S
C1430      H1469   1.081       .  S
C1430      O1443   1.235       .  S
C1430      O1467   1.268       .  A
Mg1431     O1460   2.161       .  S
Mg1431     O1475   2.310       .  S
Mg1431     O1471   2.242       .  S
Mg1431     O1442   2.299       .  S
O1432      C1453   1.236       .  S
O1432     Mg1474   2.161       .  S
O1432     Mg1457   2.155       .  S
O1433      C1464   1.269       .  A
O1433     Mg1457   2.299       .  S
C1434      C1510   1.471       .  S
C1434      O1436   1.276       .  A
C1434      O1448   1.273       .  A
O1435      C1463   1.270       .  A
O1435     Mg1437   2.302       .  S
O1436     Mg1468   2.295       .  S
Mg1437     O1443   2.131       .  S
Mg1437     O1451   2.244       .  S
Mg1437     O1439   2.275       .  S
C1438      C1482   1.467       .  S
C1438      O1476   1.273       .  A
C1438      O1444   1.267       .  A
O1439      C1446   1.270       .  A
H1440      C1453   1.081       .  S
C1441      H1466   1.081       .  S
C1441      O1455   1.234       .  S
C1441      O1456   1.268       .  A
O1442      C1465   1.269       .  A
O1443     Mg1457   2.168       .  S
O1444     Mg1474   2.267       .  S
C1445      C1491   1.464       .  S
C1445      O1458   1.264       .  A
C1445      O1450   1.277       .  A
C1446      C1513   1.470       .  S
C1446      O1473   1.274       .  A
Mg1447     O1454   2.151       .  S
Mg1447     O1455   2.152       .  S
Mg1447     O1448   2.292       .  S
Mg1447     O1449   2.300       .  S
Mg1447     O1476   2.291       .  S
O1449      C1453   1.270       .  A
O1450     Mg1457   2.315       .  S
O1451      C1470   1.267       .  A
O1452      C1472   1.278       .  A
O1452     Mg1468   2.320       .  S
O1454      C1465   1.235       .  S
O1454     Mg1468   2.168       .  S
O1455     Mg1474   2.129       .  S
O1456     Mg1468   2.292       .  S
Mg1457     O1473   2.291       .  S
O1458     Mg1474   2.211       .  S
H1459      C1464   1.081       .  S
O1460      C1463   1.235       .  S
O1460     Mg1468   2.168       .  S
H1461      C1463   1.081       .  S
H1462      C1465   1.081       .  S
O1467     Mg1474   2.289       .  S
C1470      C1478   1.474       .  S
C1470      O1475   1.275       .  A
O1471      C1472   1.269       .  A
C1472      C1496   1.472       .  S
C1477      H1479   1.087       .  S
C1478      H1480   1.085       .  S
C1481      H1483   1.088       .  S
C1481      C1482   1.346       .  D
C1482      H1484   1.084       .  S
C1485      C1486   1.208       .  T
C1487      C1488   1.209       .  T
C1489      C1490   1.205       .  T
C1491      H1493   1.086       .  S
C1491      C2032   1.336       .  D
C1492      H1494   1.087       .  S
C1492      C2031   1.345   1_545  D
C1495      H1497   1.087   1_655  S
C1496      H1498   1.086       .  S
C1499      C2040   1.211       .  T
C1500      C2039   1.208       .  T
C1501      C1502   1.200       .  T
C1503      C1504   1.209       .  T
C1509      H1511   1.088       .  S
C1509      C1510   1.347       .  D
C1510      H1512   1.084       .  S
C1513      H1515   1.083       .  S
C1513      C2054   1.348       .  D
C1514      H1516   1.088       .  S
C1514      C2053   1.349   1_545  D
C1517      C2058   1.208       .  T
C1518      C2057   1.208   1_545  T
C1519      C1520   1.207       .  T
C1521      C1522   1.208       .  T
C1523      C1524   1.204       .  T
C1525      H1527   1.086       .  S
C1525      C1526   1.339       .  D
C1529      C1530   1.346       .  D
C1530      H1532   1.084       .  S
C1533      C1534   1.209       .  T
C1535      C1536   1.210       .  T
C1537      H1539   1.084       .  S
C1537      C1538   1.347   1_554  D
C1538      H1540   1.088       .  S
C1541      H1543   1.087       .  S
C1541      C1542   1.338       .  D
C1542      H1544   1.087   1_556  S
C1545      C1546   1.209       .  T
C1547      C1548   1.201       .  T
C1549      H2091   1.088       .  S
C1549      C1550   1.342   1_556  D
C1550      H1552   1.085   1_545  S
H1551      C2089   1.088   1_556  S
C1553      H1555   1.088       .  S
C1553      C1554   1.342   1_554  D
C1554      H2096   1.085   1_565  S
H1556      C2094   1.085       .  S
C1557      C1558   1.211       .  T
C1559      C1560   1.204       .  T
C1561      C1562   1.208       .  T
C1563      C1564   1.203       .  T
C1565      H1567   1.088       .  S
C1565      C2106   1.342       .  D
C1566      H1568   1.086       .  S
C1566      C2105   1.342   1_545  D
C1569      H1571   1.086       .  S
C1569      C1570   1.340       .  D
C1570      H1572   1.087       .  S
C1573      C1574   1.206       .  T
C1575      C1576   1.203       .  T
C1577      C1578   1.206       .  T
C1579      H1581   1.087       .  S
C1579      C2120   1.337       .  D
C1580      H1582   1.085   1_545  S
C1580      C2119   1.345   1_545  D
C1583      H1585   1.087       .  S
C1584      H1586   1.085       .  S
C1587      C1588   1.212       .  T
C1589      C1590   1.207       .  T
C1593      C1594   1.204       .  T
C1595      C1596   1.208       .  T
C1597      C2138   1.203       .  T
C1598      C2137   1.205       .  T
C1599      C1600   1.206       .  T
C1601      C1602   1.201       .  T
C1603      C2144   1.210       .  T
C1604      C2143   1.205   1_545  T
C1605      H1607   1.085       .  S
C1605      C1606   1.346       .  D
C1606      H1608   1.088       .  S
C1609      H1611   1.084   1_655  S
C1610      H1612   1.088       .  S
C1613      C1614   1.205       .  T
C1615      C1616   1.207       .  T
C1619      C1620   1.201       .  T
C1621      C1622   1.414       .  A
C1621      C1626   1.411       .  A
C1621      C2146   1.491       .  S
C1622      C1623   1.413       .  A
C1622      C2160   1.448       .  S
C1623      C1624   1.417       .  A
C1623      C2158   1.453       .  S
C1624      C1625   1.415       .  A
C1624      C2150   1.494       .  S
C1625      C1626   1.409       .  A
C1625      C2153   1.452       .  S
C1626      C2155   1.449       .  S
C1627      C1628   1.396       .  A
C1627      C1632   1.413       .  A
C1627      C2159   1.444       .  S
C1628      C1629   1.396       .  A
C1628      H1647   1.086       .  S
C1629      C1630   1.418       .  A
C1629      C2144   1.451       .  S
C1630      C1631   1.423       .  A
C1630      C1637   1.406       .  A
C1631      C1632   1.419       .  A
C1631      C1636   1.422       .  A
C1632      C1633   1.408       .  A
C1633      C1634   1.395       .  A
C1633      H1643   1.083       .  S
C1634      C1635   1.405       .  A
C1634      H1644   1.083       .  S
C1635      C1636   1.423       .  A
C1635      C1642   1.415       .  A
C1636      C1639   1.419       .  A
C1637      C1638   1.397       .  A
C1638      C1639   1.407       .  A
C1638      H1646   1.083       .  S
C1639      C1640   1.415       .  A
C1640      C1641   1.393       .  A
C1640      C2142   1.441       .  S
C1641      C1642   1.392       .  A
C1641      H1648   1.087       .  S
C1642      C2140   1.446       .  S
C1649      C1650   1.396       .  A
C1649      C1654   1.412       .  A
C1649      C2138   1.440       .  S
C1650      C1651   1.396       .  A
C1650      H1669   1.086       .  S
C1651      C1652   1.415       .  A
C1651      C2157   1.447   1_655  S
C1652      C1653   1.421       .  A
C1652      C1659   1.406       .  A
C1653      C1654   1.417       .  A
C1653      C1658   1.420       .  A
C1654      C1655   1.408       .  A
C1655      C1656   1.393       .  A
C1656      C1657   1.405       .  A
C1656      H1666   1.083       .  S
C1657      C1658   1.421       .  A
C1657      C1664   1.414       .  A
C1658      C1661   1.417       .  A
C1659      C1660   1.393       .  A
C1660      C1661   1.407       .  A
C1660      H1668   1.083       .  S
C1661      C1662   1.412       .  A
C1662      C1663   1.395       .  A
C1662      C2133   1.440       .  S
C1663      C1664   1.395       .  A
C1663      H1670   1.086       .  S
C1664      C2135   1.447       .  S
C1671      C1672   1.413       .  A
C1671      C1676   1.416       .  A
C1671      C2119   1.499       .  S
C1672      C1673   1.407       .  A
C1672      C2143   1.450       .  S
C1673      C1674   1.412       .  A
C1673      C2132   1.442       .  S
C1674      C1675   1.417       .  A
C1674      C2123   1.496       .  S
C1675      C1676   1.412       .  A
C1675      C2127   1.460       .  S
C1676      C2129   1.442       .  S
C1677      C1678   1.413       .  A
C1677      C1682   1.414       .  A
C1677      C2105   1.491       .  S
C1678      C1679   1.409       .  A
C1678      C2137   1.450       .  S
C1679      C1680   1.416       .  A
C1679      C2117   1.449       .  S
C1680      C1681   1.417       .  A
C1680      C2110   1.497       .  S
C1681      C1682   1.411       .  A
C1681      C2115   1.447       .  S
C1682      C2113   1.455       .  S
C1683      C1684   1.392       .  A
C1683      C1688   1.411       .  A
C1683      C2131   1.435   1_655  S
C1684      C1685   1.391       .  A
C1684      H1703   1.087       .  S
C1685      C1686   1.413       .  A
C1685      C2118   1.442       .  S
C1686      C1687   1.422       .  A
C1686      C1693   1.404       .  A
C1687      C1688   1.417       .  A
C1687      C1692   1.419       .  A
C1688      C1689   1.407       .  A
C1689      C1690   1.395       .  A
C1690      C1691   1.406       .  A
C1690      H1700   1.083       .  S
C1691      C1692   1.422       .  A
C1691      C1698   1.415       .  A
C1692      C1695   1.417       .  A
C1693      C1694   1.393       .  A
C1693      H1701   1.083       .  S
C1694      C1695   1.408       .  A
C1694      H1702   1.083       .  S
C1695      C1696   1.411       .  A
C1696      C1697   1.397       .  A
C1696      C2104   1.443       .  S
C1697      C1698   1.398       .  A
C1697      H1704   1.086       .  S
C1698      C2102   1.449       .  S
C1705      C1706   1.411       .  A
C1705      C2089   1.488       .  S
C1706      C1707   1.409       .  A
C1706      C2136   1.452       .  S
C1707      C1708   1.416   1_554  A
C1707      C2141   1.448       .  S
C1708      C2093   1.498       .  S
C1709      C1710   1.406       .  A
C1709      C2097   1.454       .  S
C1710      C2100   1.441       .  S
C1711      C1712   1.418   1_556  A
C1711      C1716   1.419       .  A
C1711      C2082   1.497       .  S
C1712      C1713   1.408       .  A
C1712      C2103   1.448       .  S
C1713      C1714   1.407   1_554  A
C1713      C2139   1.453       .  S
C1714      C1715   1.416       .  A
C1714      C2078   1.494   1_556  S
C1715      C1716   1.415       .  A
C1715      C2087   1.445       .  S
C1716      C2086   1.455       .  S
C1717      C1722   1.414   1_554  A
C1717      C2066   1.496       .  S
C1718      C1719   1.410       .  A
C1718      C2134   1.446       .  S
C1719      C2101   1.455       .  S
C1720      C1721   1.415   1_554  A
C1720      C2069   1.496       .  S
C1721      C1722   1.410       .  A
C1721      C2073   1.447       .  S
C1722      C2075   1.451       .  S
C1723      C1724   1.413       .  A
C1723      C1728   1.417       .  A
C1723      C2049   1.500       .  S
C1724      C1725   1.410       .  A
C1724      C2063   1.453       .  S
C1725      C1726   1.419       .  A
C1725      C2061   1.446       .  S
C1726      C1727   1.418       .  A
C1726      C2054   1.503       .  S
C1727      C1728   1.412       .  A
C1727      C2058   1.455       .  S
C1728      C2059   1.449       .  S
C1729      C1730   1.396       .  A
C1729      C1734   1.416       .  A
C1729      C2076   1.445       .  S
C1730      C1731   1.395       .  A
C1730      H1749   1.086       .  S
C1731      C1732   1.411       .  A
C1731      C2088   1.442       .  S
C1732      C1733   1.419       .  A
C1732      C1739   1.406       .  A
C1733      C1734   1.420       .  A
C1733      C1738   1.420       .  A
C1734      C1735   1.406       .  A
C1735      C1736   1.396       .  A
C1735      H1745   1.083       .  S
C1736      C1737   1.407       .  A
C1737      C1738   1.419       .  A
C1737      C1744   1.415       .  A
C1738      C1741   1.420       .  A
C1739      C1740   1.391       .  A
C1739      H1747   1.083       .  S
C1740      C1741   1.405       .  A
C1740      H1748   1.083       .  S
C1741      C1742   1.411       .  A
C1742      C1743   1.396       .  A
C1742      C2060   1.444       .  S
C1743      C1744   1.396       .  A
C1743      H1750   1.086       .  S
C1744      C2048   1.445       .  S
C1751      C1752   1.393       .  A
C1751      C1756   1.413       .  A
C1751      C2074   1.441       .  S
C1752      C1753   1.393       .  A
C1752      H1771   1.086       .  S
C1753      C1754   1.416       .  A
C1753      C2098   1.446       .  S
C1754      C1755   1.421       .  A
C1754      C1761   1.405       .  A
C1755      C1756   1.419       .  A
C1755      C1760   1.421       .  A
C1756      C1757   1.406       .  A
C1757      C1758   1.394       .  A
C1757      H1767   1.083       .  S
C1758      C1759   1.406       .  A
C1759      C1760   1.421       .  A
C1759      C1766   1.415       .  A
C1760      C1763   1.419       .  A
C1761      C1762   1.395       .  A
C1761      H1769   1.083       .  S
C1762      C1763   1.408       .  A
C1763      C1764   1.414       .  A
C1764      C1765   1.399       .  A
C1764      C2057   1.448       .  S
C1765      C1766   1.399       .  A
C1765      H1772   1.086       .  S
C1766      C2045   1.450       .  S
C1773      C1774   1.420       .  A
C1773      C1778   1.413       .  A
C1773      C2032   1.488       .  S
C1774      C1775   1.410       .  A
C1774      C2040   1.458       .  S
C1775      C1776   1.416       .  A
C1775      C2047   1.450       .  S
C1776      C1777   1.416       .  A
C1776      C2035   1.491       .  S
C1777      C1778   1.405       .  A
C1777      C2043   1.454       .  S
C1778      C2042   1.450       .  S
C1779      C1780   1.416       .  A
C1779      C1784   1.416       .  A
C1779      C2021   1.502       .  S
C1780      C1781   1.412       .  A
C1780      C2026   1.445       .  S
C1781      C1782   1.418       .  A
C1781      C2046   1.456       .  S
C1782      C1783   1.416       .  A
C1782      C2017   1.499       .  S
C1783      C1784   1.410       .  A
C1783      C2030   1.448       .  S
C1784      C2028   1.451       .  S
C1785      C1786   1.394       .  A
C1785      C1790   1.408       .  A
C1785      C2099   1.435       .  S
C1786      C1787   1.395       .  A
C1786      H1805   1.086       .  S
C1787      C1788   1.418       .  A
C1787      C2085   1.449       .  S
C1788      C1789   1.423       .  A
C1788      C1795   1.405       .  A
C1789      C1790   1.415       .  A
C1789      C1794   1.419       .  A
C1790      C1791   1.408       .  A
C1791      C1792   1.391       .  A
C1791      H1801   1.083       .  S
C1792      C1793   1.403       .  A
C1793      C1794   1.422       .  A
C1793      C1800   1.412       .  A
C1794      C1797   1.416       .  A
C1795      C1796   1.396       .  A
C1795      H1803   1.083       .  S
C1796      C1797   1.409       .  A
C1796      H1804   1.083       .  S
C1797      C1798   1.413       .  A
C1798      C1799   1.396       .  A
C1798      C2025   1.439       .  S
C1799      C1800   1.395       .  A
C1799      H1806   1.086       .  S
C1800      C2039   1.447   1_565  S
C1807      C1808   1.400       .  A
C1807      C1812   1.417       .  A
C1807      C2128   1.454       .  S
C1808      C1809   1.399       .  A
C1808      H1827   1.085       .  S
C1809      C1810   1.413       .  A
C1809      C2154   1.447       .  S
C1810      C1811   1.418       .  A
C1810      C1817   1.408       .  A
C1811      C1812   1.422       .  A
C1812      C1813   1.406       .  A
C1813      H1823   1.083       .  S
C1814      C1815   1.407       .  A
C1814      H1824   1.083       .  S
C1815      C1816   1.418       .  A
C1815      C1822   1.413       .  A
C1816      C1819   1.421       .  A
C1817      H1825   1.083       .  S
C1818      C1819   1.404       .  A
C1818      H1826   1.083       .  S
C1819      C1820   1.413       .  A
C1820      C1821   1.396       .  A
C1820      C2044   1.447       .  S
C1821      C1822   1.396       .  A
C1821      H1828   1.086       .  S
C1822      C2029   1.442       .  S
C1829      C1830   1.394       .  A
C1829      C1834   1.415       .  A
C1829      C2156   1.443       .  S
C1830      C1831   1.393       .  A
C1830      H1849   1.086       .  S
C1831      C1832   1.412       .  A
C1831      C2116   1.442       .  S
C1832      C1833   1.419       .  A
C1832      C1839   1.406       .  A
C1833      C1834   1.420       .  A
C1833      C1838   1.420       .  A
C1834      C1835   1.406       .  A
C1835      C1836   1.396       .  A
C1835      H1845   1.083       .  S
C1836      C1837   1.407       .  A
C1836      H1846   1.083       .  S
C1837      C1838   1.419       .  A
C1837      C1844   1.414       .  A
C1838      C1841   1.420       .  A
C1839      C1840   1.393       .  A
C1839      H1847   1.083       .  S
C1840      C1841   1.406       .  A
C1840      H1848   1.083       .  S
C1841      C1842   1.413       .  A
C1842      C1843   1.396       .  A
C1842      C2027   1.445       .  S
C1843      C1844   1.396       .  A
C1843      H1850   1.086       .  S
C1844      C2064   1.445       .  S
C1851      C1852   1.395       .  A
C1851      C1856   1.416       .  A
C1851      C2114   1.449       .  S
C1852      C1853   1.396       .  A
C1852      H1871   1.086       .  S
C1853      C1854   1.411       .  A
C1853      C2130   1.438       .  S
C1854      C1855   1.416       .  A
C1854      C1861   1.408       .  A
C1855      C1856   1.422       .  A
C1856      C1857   1.405       .  A
C1857      H1867   1.083       .  S
C1858      C1859   1.405       .  A
C1858      H1868   1.083       .  S
C1859      C1860   1.420       .  A
C1859      C1866   1.413       .  A
C1860      C1863   1.419       .  A
C1861      H1869   1.083       .  S
C1862      C1863   1.406       .  A
C1862      H1870   1.083       .  S
C1863      C1864   1.413       .  A
C1864      C1865   1.392       .  A
C1864      C2062   1.439       .  S
C1865      C1866   1.393       .  A
C1865      H1872   1.086       .  S
C1866      C2041   1.442       .  S
O1873      C1908   1.237       .  S
O1873     Mg1881   2.160   1_556  S
C1874      H1913   1.081       .  S
C1874      O1887   1.235       .  S
C1874      O1911   1.270       .  A
Mg1875     O1904   2.153   1_556  S
Mg1875     O1919   2.288   1_556  S
Mg1875     O1915   2.285       .  S
Mg1875     O1886   2.302       .  S
O1876      C1897   1.233       .  S
O1876     Mg1918   2.159   1_556  S
O1876     Mg1901   2.147       .  S
O1877     Mg1901   2.300       .  S
C1878      O1880   1.266       .  A
O1879     Mg1881   2.296       .  S
O1880     Mg1912   2.227       .  S
Mg1881     O1895   2.262       .  S
Mg1881     O1883   2.302   1_554  S
C1882      C2094   1.470       .  S
C1882      O1888   1.281       .  A
H1884      C1897   1.081       .  S
C1885      H1910   1.081       .  S
C1885      O1899   1.235       .  S
O1886      C1909   1.271       .  A
O1887     Mg1901   2.157   1_554  S
O1888     Mg1918   2.349   1_556  S
C1889      C2077   1.478       .  S
C1889      O1902   1.278       .  A
C1889      O1894   1.274   1_554  A
C1890      C2065   1.468       .  S
C1890      O1917   1.270       .  A
Mg1891     O1899   2.169   1_556  S
Mg1891     O1892   2.329       .  S
Mg1891     O1893   2.295   1_565  S
Mg1891     O1920   2.269       .  S
O1894     Mg1901   2.298       .  S
O1895      C1914   1.272       .  A
O1896      C1916   1.268       .  A
O1896     Mg1912   2.274   1_556  S
O1898      C1909   1.237       .  S
O1898     Mg1912   2.155   1_556  S
O1900     Mg1912   2.293       .  S
Mg1901     O1917   2.263       .  S
O1902     Mg1918   2.299       .  S
H1903      C1908   1.081       .  S
O1904      C1907   1.235       .  S
O1904     Mg1912   2.140       .  S
H1905      C1907   1.081       .  S
H1906      C1909   1.081       .  S
O1911     Mg1918   2.308       .  S
C1914      C2090   1.466       .  S
O1915      C1916   1.272       .  A
C1916      C2081   1.468       .  S
O1921      C1956   1.235       .  S
O1921     Mg1923   2.161       .  S
O1921     Mg1929   2.142       .  S
C1922      H1961   1.081       .  S
C1922      O1935   1.237       .  S
C1922      O1959   1.271       .  A
Mg1923     O1952   2.148       .  S
Mg1923     O1967   2.313       .  S
Mg1923     O1963   2.272       .  S
Mg1923     O1934   2.295       .  S
O1924      C1945   1.235       .  S
O1924     Mg1966   2.151       .  S
O1924     Mg1949   2.155       .  S
O1925      C1956   1.271       .  A
O1925     Mg1949   2.311       .  S
C1926      C2106   1.461       .  S
C1926      O1928   1.269       .  A
C1926      O1940   1.272       .  A
O1927      C1955   1.271       .  A
O1927     Mg1929   2.308       .  S
O1928     Mg1960   2.251       .  S
Mg1929     O1935   2.166       .  S
Mg1929     O1943   2.282       .  S
Mg1929     O1931   2.303       .  S
C1930      C2149   1.464       .  S
C1930      O1968   1.270       .  A
C1930      O1936   1.271       .  A
O1931      C1938   1.274       .  A
H1932      C1945   1.081       .  S
C1933      H1958   1.081       .  S
C1933      O1947   1.234       .  S
C1933      O1948   1.266       .  A
O1934      C1957   1.270       .  A
O1935     Mg1949   2.167       .  S
O1936     Mg1966   2.290       .  S
C1937      C2124   1.470   1_655  S
C1937      O1950   1.263       .  A
C1937      O1942   1.280       .  A
C1938      C2109   1.468       .  S
C1938      O1965   1.273       .  A
Mg1939     O1946   2.131       .  S
Mg1939     O1947   2.153       .  S
Mg1939     O1940   2.291       .  S
Mg1939     O1941   2.301       .  S
Mg1939     O1968   2.264       .  S
O1941      C1945   1.270       .  A
O1942     Mg1949   2.349       .  S
O1943      C1962   1.273       .  A
O1944      C1964   1.269       .  A
O1944     Mg1960   2.273       .  S
O1946      C1957   1.236       .  S
O1946     Mg1960   2.165       .  S
O1947     Mg1966   2.115       .  S
O1948     Mg1960   2.282       .  S
Mg1949     O1965   2.275       .  S
O1950     Mg1966   2.201       .  S
H1951      C1956   1.081       .  S
O1952      C1955   1.236       .  S
O1952     Mg1960   2.150       .  S
H1953      C1955   1.081       .  S
H1954      C1957   1.081       .  S
O1959     Mg1966   2.304       .  S
C1962      C2145   1.474       .  S
C1962      O1967   1.273       .  A
O1963      C1964   1.273       .  A
C1964      C2120   1.469       .  S
O1969      C2004   1.234       .  S
O1969     Mg1971   2.134       .  S
O1969     Mg1977   2.157       .  S
C1970      H2009   1.081       .  S
C1970      O1983   1.234       .  S
C1970      O2007   1.268       .  A
Mg1971     O2000   2.158       .  S
Mg1971     O2015   2.299       .  S
Mg1971     O2011   2.237       .  S
Mg1971     O1982   2.305       .  S
O1972      C1993   1.235       .  S
O1972     Mg2014   2.161       .  S
O1972     Mg1997   2.168       .  S
O1973      C2004   1.267       .  A
O1973     Mg1997   2.290       .  S
C1974      C2050   1.477       .  S
C1974      O1976   1.268       .  A
C1974      O1988   1.275       .  A
O1975      C2003   1.269       .  A
O1975     Mg1977   2.297       .  S
O1976     Mg2008   2.252       .  S
Mg1977     O1983   2.140       .  S
Mg1977     O1991   2.247       .  S
Mg1977     O1979   2.259       .  S
C1978      C2022   1.477       .  S
C1978      O2016   1.270       .  A
C1978      O1984   1.275       .  A
O1979      C1986   1.268       .  A
H1980      C1993   1.081       .  S
C1981      H2006   1.081       .  S
C1981      O1995   1.235       .  S
C1981      O1996   1.270       .  A
O1982      C2005   1.270       .  A
O1983     Mg1997   2.173       .  S
O1984     Mg2014   2.311       .  S
C1985      C2031   1.474       .  S
C1985      O1998   1.271       .  A
C1985      O1990   1.277       .  A
C1986      C2053   1.468       .  S
C1986      O2013   1.276       .  A
Mg1987     O1994   2.150       .  S
Mg1987     O1995   2.156       .  S
Mg1987     O1988   2.312       .  S
Mg1987     O1989   2.306       .  S
Mg1987     O2016   2.256       .  S
O1989      C1993   1.270       .  A
O1990     Mg1997   2.314       .  S
O1991      C2010   1.268       .  A
O1992      C2012   1.272       .  A
O1992     Mg2008   2.285       .  S
O1994      C2005   1.235       .  S
O1994     Mg2008   2.156       .  S
O1995     Mg2014   2.161       .  S
O1996     Mg2008   2.305       .  S
Mg1997     O2013   2.302       .  S
O1998     Mg2014   2.254       .  S
H1999      C2004   1.081       .  S
O2000      C2003   1.234       .  S
O2000     Mg2008   2.147       .  S
H2001      C2003   1.081       .  S
H2002      C2005   1.081       .  S
O2007     Mg2014   2.294       .  S
C2010      C2018   1.472       .  S
C2010      O2015   1.273       .  A
O2011      C2012   1.267       .  A
C2012      C2036   1.465       .  S
C2017      H2019   1.087       .  S
C2018      H2020   1.085       .  S
C2021      H2023   1.087       .  S
C2021      C2022   1.347       .  D
C2022      H2024   1.085       .  S
C2025      C2026   1.203       .  T
C2027      C2028   1.206       .  T
C2029      C2030   1.204       .  T
C2031      H2033   1.085       .  S
C2032      H2034   1.087       .  S
C2035      H2037   1.087   1_655  S
C2036      H2038   1.086       .  S
C2041      C2042   1.204       .  T
C2043      C2044   1.207       .  T
C2049      H2051   1.087       .  S
C2049      C2050   1.345       .  D
C2050      H2052   1.085       .  S
C2053      H2055   1.083   1_565  S
C2054      H2056   1.088       .  S
C2059      C2060   1.205       .  T
C2061      C2062   1.203       .  T
C2063      C2064   1.206       .  T
C2065      H2067   1.085       .  S
C2065      C2066   1.345   1_556  D
C2069      C2070   1.340       .  D
C2070      H2072   1.086       .  S
C2073      C2074   1.203       .  T
C2075      C2076   1.207       .  T
C2077      H2079   1.087       .  S
C2077      C2078   1.341       .  D
C2078      H2080   1.087   1_554  S
C2081      H2083   1.085       .  S
C2081      C2082   1.346       .  D
C2082      H2084   1.088   1_556  S
C2085      C2086   1.210       .  T
C2087      C2088   1.204       .  T
C2089      C2090   1.343       .  D
C2090      H2092   1.086       .  S
C2093      H2095   1.087       .  S
C2093      C2094   1.336       .  D
C2097      C2098   1.208       .  T
C2099      C2100   1.199       .  T
C2101      C2102   1.209       .  T
C2103      C2104   1.205       .  T
C2105      H2107   1.088       .  S
C2106      H2108   1.085       .  S
C2109      H2111   1.085       .  S
C2109      C2110   1.345       .  D
C2110      H2112   1.088       .  S
C2113      C2114   1.209       .  T
C2115      C2116   1.204       .  T
C2117      C2118   1.205       .  T
C2119      H2121   1.088   1_565  S
C2120      H2122   1.087       .  S
C2123      H2125   1.087       .  S
C2124      H2126   1.086       .  S
C2127      C2128   1.212       .  T
C2129      C2130   1.201       .  T
C2133      C2134   1.203       .  T
C2135      C2136   1.207       .  T
C2139      C2140   1.207       .  T
C2141      C2142   1.204       .  T
C2145      H2147   1.086       .  S
C2145      C2146   1.345       .  D
C2146      H2148   1.087       .  S
C2149      H2151   1.085   1_655  S
C2150      H2152   1.088       .  S
C2153      C2154   1.207       .  T
C2155      C2156   1.205       .  T
C2159      C2160   1.205       .  T
