geometry optimzed in LAMMPS
_audit_creation_date              2020-11-30 
_audit_creation_method            'lammps2cif' 
_symmetry_space_group_name_H-M    'P1' 
_symmetry_Int_Tables_number       1 
_symmetry_cell_setting            triclinic 
loop_ 
_symmetry_equiv_pos_as_xyz 
  x,y,z 
_cell_length_a                    37.62846467 
_cell_length_b                    38.64073145460968 
_cell_length_c                    30.545800139910565 
_cell_angle_alpha                 88.93043960456896 
_cell_angle_beta                  90.47497923086145 
_cell_angle_gamma                 90.7041137410258 
loop_ 
_atom_site_label 
_atom_site_type_symbol 
_atom_site_fract_x 
_atom_site_fract_y 
_atom_site_fract_z 
_atom_site_charge 
C1          C  0.37104712  0.36195763  0.00067001     0.02800
C2          C  0.35796956  0.34868307  0.04057730    -0.13400
C3          C  0.33067463  0.32364399  0.04104293     0.00300
C4          C  0.31648747  0.31193482  0.50119034    -0.11900
C5          C  0.32902987  0.32556812  0.46109603     0.02800
C6          C  0.35623912  0.35070482  0.46112947    -0.11300
H7          H  0.36917698  0.35768402  0.07117948     0.08400
H8          H  0.29569939  0.29226562  0.50133706     0.05900
H9          H  0.36627564  0.36108365  0.43036254     0.05700
C10         C  0.05670113  0.35997845  0.99613881     0.02800
C11         C  0.06992277  0.34744243  0.03668398    -0.13400
C12         C  0.09603049  0.32184293  0.03768367     0.00300
C13         C  0.10787220  0.30823057  0.49872662    -0.11900
C14         C  0.09580727  0.32094042  0.45842493     0.02800
C15         C  0.06982593  0.34669795  0.45691281    -0.11300
H16         H  0.06049355  0.35801713  0.06700470     0.08400
H17         H  0.12779329  0.28812978  0.49967224     0.05900
H18         H  0.06038814  0.35673782  0.42563246     0.05700
C19         C  0.37457778  0.04100559  0.99341450     0.02800
C20         C  0.36325151  0.05855008  0.03062065    -0.13400
C21         C  0.33725958  0.08425571  0.02663030     0.00300
C22         C  0.32253245  0.09172588  0.48536309    -0.11900
C23         C  0.33434564  0.07490439  0.44810490     0.02800
C24         C  0.36000001  0.04919075  0.45230953    -0.11300
H25         H  0.37488386  0.05242994  0.06235398     0.08400
H26         H  0.30211577  0.11115572  0.48186644     0.05900
H27         H  0.36921959  0.03614821  0.42349434     0.05700
N28         N  0.46496557  0.39776144  0.99939396    -0.37000
N29         N  0.02088178  0.45074418  0.99266617    -0.57500
N30         N  0.46693527  0.00429871  0.99640904    -0.37000
N31         N  0.41112400  0.45137255  0.99934355    -0.57500
C32         C  0.49333950  0.37750076  0.99206443     0.26600
C33         C  0.43528016  0.37795462  0.99442659     0.26600
C34         C  0.49592093  0.02414520  0.98737894     0.26600
C35         C  0.43800865  0.02434864  0.99023279     0.26600
C36         C  0.04168060  0.42254412  0.99699774     0.35200
C37         C  0.04264528  0.47876984  0.99543893     0.35200
C38         C  0.38953599  0.42350745  0.00515985     0.35200
C39         C  0.39067882  0.47954728  0.00392480     0.35200
C40         C  0.48153663  0.34418576  0.98319328    -0.22300
C41         C  0.44499805  0.34448852  0.98459208    -0.22300
C42         C  0.48524067  0.05746408  0.97627269    -0.22300
C43         C  0.44879209  0.05752436  0.97787440    -0.22300
C44         C  0.07698274  0.43273859  0.00142493    -0.23300
C45         C  0.07759105  0.46829232  0.00043919    -0.23300
C46         C  0.35512368  0.43407567  0.01309805    -0.23300
C47         C  0.35586292  0.46954974  0.01235217    -0.23300
C48         C  0.02962527  0.38768145  0.99509889    -0.18700
C49         C  0.39972772  0.38868985  0.00046864    -0.18700
C50         C  0.40219185  0.01411708  0.99712455    -0.18700
C51         C  0.03177886  0.01370422  0.99142526    -0.18700
H52         H  0.99755302  0.32184564  0.97651070     0.14300
H53         H  0.42761272  0.32240581  0.97936072     0.14300
H54         H  0.50183071  0.07969594  0.96821934     0.14300
H55         H  0.43219517  0.07971460  0.97131647     0.14300
H56         H  0.09998113  0.41629921  0.00466287     0.12500
H57         H  0.10115816  0.48452562  0.00269023     0.12500
H58         H  0.33173285  0.41795913  0.01813328     0.12500
H59         H  0.33318908  0.48607634  0.01668682     0.12500
H60         H  0.46599621  0.42255468  0.01156863     0.25800
H61         H  0.46712585  0.47979036  0.01065561     0.25800
C62         C  0.05949233  0.04131306  0.99264932     0.02800
C63         C  0.07427090  0.05078612  0.03306559    -0.13400
C64         C  0.09908788  0.07794209  0.03514743     0.00300
C65         C  0.10960275  0.09513432  0.49640386    -0.11900
C66         C  0.09440524  0.08661095  0.45581593     0.02800
C67         C  0.06963080  0.05913251  0.45406186    -0.11300
H68         H  0.06594570  0.03746997  0.06287029     0.08400
H69         H  0.12985279  0.11526577  0.49814333     0.05900
H70         H  0.05769721  0.05203169  0.42305030     0.05700
O71         O  0.20241013  0.23238459  0.34507911    -0.80500
O72         O  0.18183256  0.16368360  0.17923585    -0.80500
O73         O  0.16044794  0.24031459  0.20758403    -0.80500
O74         O  0.16670698  0.15439540  0.27627619    -0.80500
O75         O  0.19854901  0.23037819  0.15685102    -0.80600
O76         O  0.20072238  0.16349102  0.33488841    -0.80500
O77         O  0.19299050  0.11333440  0.21167045    -0.80500
O78         O  0.16182127  0.24207216  0.29445217    -0.80500
C79         C  0.17157318  0.24288103  0.33373318     1.09200
C80         C  0.17681364  0.13044909  0.18213728     1.09100
C81         C  0.16898393  0.24235006  0.16812545     1.09200
C82         C  0.17160855  0.15311568  0.31747766     1.09100
O83         O  0.27141874  0.16721241  0.29345513    -0.80500
O84         O  0.26687672  0.22781348  0.19709731    -0.80600
O85         O  0.23085266  0.27662263  0.29496082    -0.80500
O86         O  0.25478288  0.14858826  0.19921244    -0.80500
O87         O  0.24367125  0.17955426  0.13936372    -0.80500
O88         O  0.27051560  0.23625435  0.29962987    -0.80500
O89         O  0.23460723  0.12546815  0.28305707    -0.80500
O90         O  0.23186488  0.27235429  0.20452948    -0.80500
Co91       Co  0.23618537  0.19986001  0.31493579     1.51500
Co92       Co  0.22595437  0.19557333  0.19242861     1.51700
Co93       Co  0.19688643  0.25467648  0.25027671     1.51600
Co94       Co  0.20884740  0.15478145  0.23807771     1.51500
O95         O  0.21547942  0.20513795  0.25460044    -1.42400
C96         C  0.26352631  0.13587085  0.29953957     1.09100
C97         C  0.26043303  0.25957181  0.18989386     1.09200
C98         C  0.26111627  0.26632959  0.30861865     1.09100
C99         C  0.26088863  0.15560717  0.15815829     1.09100
C100        C  0.11399130  0.08915218  0.07747499    -0.06500
C101        C  0.13639567  0.06691912  0.10130692    -0.17600
C102        C  0.15517158  0.07851909  0.13813451     0.10700
C103        C  0.15222562  0.11352925  0.15071280    -0.06400
C104        C  0.12778735  0.13474923  0.12838975    -0.17600
C105        C  0.10850141  0.12291810  0.09231164     0.10700
S106        S  0.18404363  0.04800670  0.16525921    -0.32600
S107        S  0.07680822  0.15112354  0.06556181    -0.32600
H108        H  0.08519060  0.18126196  0.58880554     0.28800
H109        H  0.16860013  0.05268982  0.20645210     0.28700
H110        H  0.14024866  0.04075648  0.09021347     0.19300
H111        H  0.12450744  0.16114794  0.13842699     0.19300
C112        C  0.10631732  0.10537547  0.41546116    -0.06500
C113        C  0.11659139  0.08623540  0.37906237    -0.17600
C114        C  0.13478197  0.10215840  0.34395366     0.10700
C115        C  0.14469487  0.13736919  0.34658524    -0.06400
C116        C  0.13277518  0.15676195  0.38166188    -0.17600
C117        C  0.11186183  0.14168159  0.41445932     0.10700
S118        S  0.14725178  0.07692382  0.29753830    -0.32600
S119        S  0.09246777  0.17036157  0.45325305    -0.32600
H120        H  0.06347278  0.14871142  0.96318818     0.28800
H121        H  0.13617690  0.04453455  0.31460784     0.28700
H122        H  0.11182854  0.05856025  0.37904198     0.19300
H123        H  0.13998965  0.18389209  0.38373202     0.19300
C124        C  0.28792513  0.13744020  0.13216619    -0.06500
C125        C  0.30389710  0.15625686  0.09757570    -0.17600
C126        C  0.32264475  0.13985714  0.06478543     0.10700
C127        C  0.32487420  0.10335803  0.06535498    -0.06400
C128        C  0.31163282  0.08469363  0.10179796    -0.17600
C129        C  0.29378672  0.10138612  0.13552984     0.10700
S130        S  0.34221762  0.16706225  0.02252261    -0.32600
S131        S  0.27656835  0.07490115  0.17969889    -0.32600
H132        H  0.29143675  0.09587996  0.21242050     0.28800
H133        H  0.37031368  0.14469296  0.01341799     0.28700
H134        H  0.30066908  0.18406780  0.09512377     0.19300
H135        H  0.31371040  0.05674430  0.10301546     0.19300
C136        C  0.32092365  0.08604947  0.40471084    -0.06500
C137        C  0.29126514  0.06904174  0.38685876    -0.17600
C138        C  0.27308163  0.08295703  0.35027382     0.10700
C139        C  0.28502741  0.11478073  0.33118077    -0.06400
C140        C  0.31649059  0.13004809  0.34756721    -0.17600
C141        C  0.33432676  0.11620524  0.38391756     0.10700
S142        S  0.23401985  0.06045709  0.33043851    -0.32600
S143        S  0.37252514  0.13974745  0.40426341    -0.32600
H144        H  0.39066938  0.11055288  0.42027232     0.28800
H145        H  0.23320656  0.03387099  0.36251496     0.28700
H146        H  0.28141345  0.04572628  0.40306881     0.19300
H147        H  0.32653416  0.15409603  0.33333929     0.19300
C148        C  0.11272146  0.30866110  0.07836974    -0.06500
C149        C  0.09320996  0.28605334  0.10568030    -0.17600
C150        C  0.11046471  0.26399867  0.13580707     0.10700
C151        C  0.14812481  0.26388887  0.13743413    -0.06400
C152        C  0.16723071  0.28797010  0.11181705    -0.17600
C153        C  0.14996403  0.31101612  0.08363707     0.10700
S154        S  0.08279219  0.23598743  0.16938313    -0.32600
S155        S  0.17706371  0.34242308  0.05446272    -0.32600
H156        H  0.14959792  0.36600747  0.04578096     0.28800
H157        H  0.10745433  0.20945234  0.17564404     0.28700
H158        H  0.06461263  0.28409557  0.10168412     0.19300
H159        H  0.19596296  0.28941707  0.11447063     0.19300
C160        C  0.14998128  0.26264435  0.36424737    -0.06500
C161        C  0.16795331  0.28846647  0.38756851    -0.17600
C162        C  0.14971142  0.31131871  0.41363941     0.10700
C163        C  0.11272816  0.30713017  0.41922931    -0.06400
C164        C  0.09426080  0.28241178  0.39459978    -0.17600
C165        C  0.11228476  0.26060970  0.36625732     0.10700
S166        S  0.17527796  0.34506809  0.43962610    -0.32000
S167        S  0.08511853  0.23072431  0.33525982    -0.32600
H168        H  0.11162469  0.20833617  0.32170561     0.28800
H169        H  0.14660930  0.36734430  0.44620422     0.28700
H170        H  0.19648555  0.29170127  0.38429719     0.19300
H171        H  0.06587426  0.27898806  0.39903696     0.19300
C172        C  0.31713220  0.30934290  0.08316395    -0.06500
C173        C  0.29211507  0.32822602  0.10625099    -0.17600
C174        C  0.27511128  0.31410609  0.14353656     0.10700
C175        C  0.28295609  0.27972838  0.15781456    -0.06400
C176        C  0.31001998  0.26207120  0.13603865    -0.17600
C177        C  0.32718577  0.27649898  0.09936529     0.10700
S178        S  0.24342115  0.34052194  0.17155207    -0.32600
S179        S  0.36077845  0.25107991  0.07366686    -0.32600
H180        H  0.38058658  0.27901297  0.05608424     0.28800
H181        H  0.24389709  0.36888115  0.14200945     0.28700
H182        H  0.28524225  0.35381366  0.09413634     0.19300
H183        H  0.31711754  0.23611351  0.14653437     0.19300
C184        C  0.31491289  0.31220324  0.41913971    -0.06500
C185        C  0.29142900  0.33244184  0.39377612    -0.17600
C186        C  0.27526155  0.31952039  0.35559029     0.10700
C187        C  0.28225605  0.28526794  0.34254688    -0.06400
C188        C  0.30735925  0.26599155  0.36714850    -0.17600
C189        C  0.32360239  0.27896050  0.40482158     0.10700
S190        S  0.24597889  0.34794115  0.32546104    -0.32600
S191        S  0.35421472  0.25113587  0.43412983    -0.32600
H192        H  0.37619847  0.27774805  0.45024953     0.28800
H193        H  0.25713425  0.33705687  0.28411102     0.28700
H194        H  0.28516096  0.35828837  0.40424909     0.19300
H195        H  0.31358930  0.23977434  0.35816672     0.19300
C196        C  0.37107346  0.36196160  0.50080606     0.02800
C197        C  0.35794418  0.34868002  0.54067853    -0.13400
C198        C  0.33071557  0.32357696  0.54108190     0.00300
C199        C  0.31633838  0.31205210  0.00119295    -0.11900
C200        C  0.32885409  0.32564327  0.96107191     0.02800
C201        C  0.35612150  0.35072332  0.96103099    -0.11300
H202        H  0.36907503  0.35771258  0.57130713     0.08400
H203        H  0.29550396  0.29242855  0.00139198     0.05900
H204        H  0.36613074  0.36107300  0.93023559     0.05700
C205        C  0.05666809  0.35996436  0.49625006     0.02800
C206        C  0.06981773  0.34736071  0.53679628    -0.13400
C207        C  0.09591073  0.32174994  0.53779634     0.00300
C208        C  0.10793535  0.30827447  0.99861566    -0.11900
C209        C  0.09579623  0.32091682  0.95831714     0.02800
C210        C  0.06979872  0.34665608  0.95680358    -0.11300
H211        H  0.06035588  0.35790207  0.56712072     0.08400
H212        H  0.12786041  0.28817733  0.99955448     0.05900
H213        H  0.06030555  0.35664195  0.92552153     0.05700
C214        C  0.37456954  0.04100141  0.49356550     0.02800
C215        C  0.36325268  0.05851923  0.53078990    -0.13400
C216        C  0.33731277  0.08426769  0.52681251     0.00300
C217        C  0.32245310  0.09165120  0.98516943    -0.11900
C218        C  0.33427591  0.07480472  0.94792466     0.02800
C219        C  0.35996503  0.04912551  0.95216070    -0.11300
H220        H  0.37485852  0.05235209  0.56252439     0.08400
H221        H  0.30201675  0.11105844  0.98164915     0.05900
H222        H  0.36919385  0.03606822  0.92336087     0.05700
N223        N  0.46497020  0.39777411  0.49967075    -0.37000
N224        N  0.02086265  0.45072669  0.49276775    -0.57500
N225        N  0.46690371  0.00427509  0.49643899    -0.37000
N226        N  0.41112148  0.45136616  0.49967024    -0.57500
C227        C  0.49332592  0.37756189  0.49203417     0.26600
C228        C  0.43527780  0.37801469  0.49447560     0.26600
C229        C  0.49588218  0.02412945  0.48741894     0.26600
C230        C  0.43797739  0.02433588  0.49034209     0.26600
C231        C  0.04166849  0.42253802  0.49714788     0.35200
C232        C  0.04262344  0.47875698  0.49546753     0.35200
C233        C  0.38953375  0.42350348  0.50546375     0.35200
C234        C  0.39065140  0.47953823  0.50410452     0.35200
C235        C  0.48150887  0.34433473  0.48273250    -0.22300
C236        C  0.44497597  0.34463606  0.48418459    -0.22300
C237        C  0.48519846  0.05746120  0.47638383    -0.22300
C238        C  0.44875437  0.05752403  0.47803025    -0.22300
C239        C  0.07697068  0.43273709  0.50153750    -0.23300
C240        C  0.07757375  0.46829110  0.50046707    -0.23300
C241        C  0.35509654  0.43406567  0.51326628    -0.23300
C242        C  0.35581829  0.46954034  0.51243166    -0.23300
C243        C  0.02961239  0.38768555  0.49522377    -0.18700
C244        C  0.39973462  0.38870445  0.50068214    -0.18700
C245        C  0.40216691  0.01410601  0.49726349    -0.18700
C246        C  0.03175114  0.01367386  0.49141519    -0.18700
H247        H  0.99750467  0.32202778  0.47587238     0.14300
H248        H  0.42758176  0.32261016  0.47865555     0.14300
H249        H  0.50178457  0.07970427  0.46836843     0.14300
H250        H  0.43215737  0.07972727  0.47154628     0.14300
H251        H  0.09997115  0.41630038  0.50477557     0.12500
H252        H  0.10113899  0.48453266  0.50265829     0.12500
H253        H  0.33169297  0.41794572  0.51819238     0.12500
H254        H  0.33311869  0.48606413  0.51659987     0.12500
H255        H  0.46602082  0.42244748  0.51224349     0.25800
H256        H  0.46710626  0.47974030  0.51059383     0.25800
C257        C  0.05945448  0.04128494  0.49258648     0.02800
C258        C  0.07420759  0.05083049  0.53298712    -0.13400
C259        C  0.09898087  0.07802717  0.53501985     0.00300
C260        C  0.10973828  0.09508000  0.99656252    -0.11900
C261        C  0.09451997  0.08663321  0.95595912     0.02800
C262        C  0.06969545  0.05919574  0.95415789    -0.11300
H263        H  0.06589769  0.03753780  0.56281472     0.08400
H264        H  0.13001869  0.11517998  0.99834129     0.05900
H265        H  0.05775237  0.05214709  0.92313214     0.05700
O266        O  0.20243189  0.23236953  0.84503287    -0.80500
O267        O  0.18187881  0.16375208  0.67911393    -0.80500
O268        O  0.16049873  0.24024967  0.70755722    -0.80500
O269        O  0.16667208  0.15445304  0.77631378    -0.80500
O270        O  0.19863921  0.23043598  0.65683642    -0.80600
O271        O  0.20077977  0.16349012  0.83486523    -0.80500
O272        O  0.19286025  0.11338780  0.71160899    -0.80500
O273        O  0.16183037  0.24205231  0.79440868    -0.80500
C274        C  0.17158547  0.24284643  0.83369139     1.09200
C275        C  0.17678853  0.13052735  0.68200590     1.09100
C276        C  0.16904397  0.24233831  0.66811066     1.09200
C277        C  0.17162652  0.15316478  0.81750980     1.09100
O278        O  0.27143363  0.16719286  0.79336378    -0.80500
O279        O  0.26695455  0.22779755  0.69719297    -0.80600
O280        O  0.23081418  0.27662840  0.79491619    -0.80500
O281        O  0.25470219  0.14856711  0.69919895    -0.80500
O282        O  0.24375402  0.17961624  0.63936255    -0.80500
O283        O  0.27050946  0.23628554  0.79953025    -0.80500
O284        O  0.23457189  0.12546826  0.78298373    -0.80500
O285        O  0.23192179  0.27233222  0.70453442    -0.80500
Co286      Co  0.23621679  0.19985948  0.81487881     1.51500
Co287      Co  0.22601066  0.19560104  0.69241571     1.51700
Co288      Co  0.19689740  0.25465955  0.75024244     1.51600
Co289      Co  0.20877757  0.15480222  0.73805576     1.51500
O290        O  0.21548638  0.20513324  0.75457470    -1.42400
C291        C  0.26353708  0.13583871  0.79938786     1.09100
C292        C  0.26052423  0.25955449  0.68998125     1.09200
C293        C  0.26108093  0.26634869  0.80855432     1.09100
C294        C  0.26088896  0.15562192  0.65817751     1.09100
C295        C  0.11391720  0.08927209  0.57731706    -0.06500
C296        C  0.13629380  0.06702728  0.60116746    -0.17600
C297        C  0.15510203  0.07862670  0.63796781     0.10700
C298        C  0.15221729  0.11365010  0.65051176    -0.06400
C299        C  0.12783124  0.13490324  0.62813812    -0.17600
C300        C  0.10845938  0.12305339  0.59212615     0.10700
S301        S  0.18398716  0.04810441  0.66504795    -0.32600
S302        S  0.07676587  0.15124598  0.56531582    -0.32600
H303        H  0.08768005  0.18180331  0.08615020     0.28800
H304        H  0.16854982  0.05274700  0.70625432     0.28700
H305        H  0.14010426  0.04084995  0.59010301     0.19300
H306        H  0.12470742  0.16134793  0.63804990     0.19300
C307        C  0.10646181  0.10542034  0.91562931    -0.06500
C308        C  0.11670329  0.08628874  0.87920818    -0.17600
C309        C  0.13489014  0.10220704  0.84409794     0.10700
C310        C  0.14474622  0.13743065  0.84667071    -0.06400
C311        C  0.13289313  0.15681349  0.88179342    -0.17600
C312        C  0.11204938  0.14172421  0.91465680     0.10700
S313        S  0.14741544  0.07694133  0.79774044    -0.32600
S314        S  0.09280708  0.17039696  0.95357627    -0.32600
H315        H  0.06318042  0.14861143  0.46285524     0.28800
H316        H  0.13829821  0.04435831  0.81594555     0.28700
H317        H  0.11189218  0.05862097  0.87914674     0.19300
H318        H  0.14012182  0.18394025  0.88385961     0.19300
C319        C  0.28793720  0.13743526  0.63225708    -0.06500
C320        C  0.30401107  0.15625740  0.59774800    -0.17600
C321        C  0.32278832  0.13985285  0.56499872     0.10700
C322        C  0.32494323  0.10335128  0.56553682    -0.06400
C323        C  0.31160509  0.08467498  0.60191155    -0.17600
C324        C  0.29372660  0.10136983  0.63560549     0.10700
S325        S  0.34247499  0.16705164  0.52280883    -0.32600
S326        S  0.27637379  0.07487948  0.67968945    -0.32600
H327        H  0.29124020  0.09579074  0.71248151     0.28800
H328        H  0.37053654  0.14463287  0.51373535     0.28700
H329        H  0.30083476  0.18407550  0.59531922     0.19300
H330        H  0.31362483  0.05672031  0.60309309     0.19300
C331        C  0.32091700  0.08595355  0.90449177    -0.06500
C332        C  0.29137936  0.06885856  0.88645550    -0.17600
C333        C  0.27326121  0.08275755  0.84980185     0.10700
C334        C  0.28510121  0.11468801  0.83090225    -0.06400
C335        C  0.31650389  0.12999391  0.84739531    -0.17600
C336        C  0.33430095  0.11615393  0.88377414     0.10700
S337        S  0.23442354  0.06009271  0.82960239    -0.32600
S338        S  0.37239381  0.13979418  0.90424922    -0.32600
H339        H  0.39044440  0.11073183  0.92080981     0.28800
H340        H  0.23426951  0.03282851  0.86076329     0.28700
H341        H  0.28155443  0.04549518  0.90257800     0.19300
H342        H  0.32650869  0.15408897  0.83325605     0.19300
C343        C  0.11259599  0.30857244  0.57848272    -0.06500
C344        C  0.09315317  0.28582795  0.60568784    -0.17600
C345        C  0.11047344  0.26380702  0.63579242     0.10700
C346        C  0.14813459  0.26385133  0.63746276    -0.06400
C347        C  0.16716368  0.28807123  0.61196753    -0.17600
C348        C  0.14981934  0.31109513  0.58383380     0.10700
S349        S  0.08287864  0.23567469  0.66931663    -0.32600
S350        S  0.17679199  0.34269756  0.55481906    -0.32600
H351        H  0.14921943  0.36618435  0.54623818     0.28800
H352        H  0.10766123  0.20927600  0.67577006     0.28700
H353        H  0.06456812  0.28375359  0.60163767     0.19300
H354        H  0.19588714  0.28964561  0.61468831     0.19300
C355        C  0.14998516  0.26258899  0.86420721    -0.06500
C356        C  0.16791522  0.28851441  0.88739456    -0.17600
C357        C  0.14963991  0.31137262  0.91342034     0.10700
C358        C  0.11268217  0.30707616  0.91912295    -0.06400
C359        C  0.09425450  0.28223557  0.89464644    -0.17600
C360        C  0.11229902  0.26043944  0.86631935     0.10700
S361        S  0.17512447  0.34527473  0.93921132    -0.32000
S362        S  0.08516995  0.23042596  0.83546759    -0.32600
H363        H  0.11173478  0.20821025  0.82164904     0.28800
H364        H  0.14639167  0.36749943  0.94566224     0.28700
H365        H  0.19643201  0.29182974  0.88403814     0.19300
H366        H  0.06588813  0.27872708  0.89917976     0.19300
C367        C  0.31715609  0.30926934  0.58319535    -0.06500
C368        C  0.29216910  0.32816704  0.60631691    -0.17600
C369        C  0.27524857  0.31408074  0.64367838     0.10700
C370        C  0.28308186  0.27970200  0.65793772    -0.06400
C371        C  0.31013975  0.26204142  0.63615380    -0.17600
C372        C  0.32728390  0.27646601  0.59946037     0.10700
S373        S  0.24375662  0.34057144  0.67190800    -0.32600
S374        S  0.36099875  0.25113142  0.57386900    -0.32600
H375        H  0.38077280  0.27912228  0.55637309     0.28800
H376        H  0.24378273  0.36869664  0.64200510     0.28700
H377        H  0.28529661  0.35375949  0.59421895     0.19300
H378        H  0.31726323  0.23609734  0.64667765     0.19300
C379        C  0.31470645  0.31222447  0.91916696    -0.06500
C380        C  0.29135082  0.33250153  0.89366601    -0.17600
C381        C  0.27522108  0.31956165  0.85546865     0.10700
C382        C  0.28215295  0.28526758  0.84253857    -0.06400
C383        C  0.30709026  0.26593210  0.86731189    -0.17600
C384        C  0.32326246  0.27889771  0.90502071     0.10700
S385        S  0.24607601  0.34801438  0.82517307    -0.32600
S386        S  0.35359329  0.25094601  0.93459315    -0.32600
H387        H  0.37565395  0.27744969  0.95083799     0.28800
H388        H  0.25724007  0.33700101  0.78388565     0.28700
H389        H  0.28515760  0.35839383  0.90403487     0.19300
H390        H  0.31323099  0.23966801  0.85844294     0.19300
C391        C  0.37107671  0.86194028  0.00069917     0.02800
C392        C  0.35800916  0.84866529  0.04061173    -0.13400
C393        C  0.33069999  0.82364099  0.04108622     0.00300
C394        C  0.31649021  0.81195563  0.50125850    -0.11900
C395        C  0.32901845  0.82557866  0.46115296     0.02800
C396        C  0.35623829  0.85070450  0.46116073    -0.11300
H397        H  0.36923133  0.85765792  0.07121002     0.08400
H398        H  0.29569360  0.79229488  0.50142463     0.05900
H399        H  0.36626233  0.86107784  0.43038472     0.05700
C400        C  0.05673621  0.85999525  0.99615455     0.02800
C401        C  0.06995643  0.84746213  0.03670147    -0.13400
C402        C  0.09606877  0.82186747  0.03770587     0.00300
C403        C  0.10794181  0.80828379  0.49870522    -0.11900
C404        C  0.09585265  0.82098315  0.45840975     0.02800
C405        C  0.06984795  0.84671725  0.45690928    -0.11300
H406        H  0.06052229  0.85803546  0.06702063     0.08400
H407        H  0.12787754  0.78819670  0.49964035     0.05900
H408        H  0.06039349  0.85674992  0.42563295     0.05700
C409        C  0.37457467  0.54102495  0.99342128     0.02800
C410        C  0.36324434  0.55858043  0.03061600    -0.13400
C411        C  0.33724023  0.58427329  0.02661325     0.00300
C412        C  0.32253145  0.59173615  0.48537213    -0.11900
C413        C  0.33433358  0.57490160  0.44811779     0.02800
C414        C  0.35998650  0.54918790  0.45232471    -0.11300
H415        H  0.37488020  0.55247541  0.06235187     0.08400
H416        H  0.30211036  0.61116124  0.48187383     0.05900
H417        H  0.36919557  0.53613368  0.42351291     0.05700
N418        N  0.46499009  0.89774771  0.99943003    -0.37000
N419        N  0.02089614  0.95075045  0.99265458    -0.57500
N420        N  0.46693352  0.50431690  0.99647263    -0.37000
N421        N  0.41113940  0.95135514  0.99932955    -0.57500
C422        C  0.49336333  0.87749604  0.99205751     0.26600
C423        C  0.43530585  0.87794572  0.99442399     0.26600
C424        C  0.49592106  0.52415763  0.98742406     0.26600
C425        C  0.43800762  0.52436426  0.99027013     0.26600
C426        C  0.04170209  0.92255812  0.99701656     0.35200
C427        C  0.04265141  0.97878216  0.99542218     0.35200
C428        C  0.38955879  0.92348892  0.00517387     0.35200
C429        C  0.39068911  0.97952759  0.00390301     0.35200
C430        C  0.48156181  0.84419240  0.98312182    -0.22300
C431        C  0.44502340  0.84449254  0.98452338    -0.22300
C432        C  0.48524307  0.55747074  0.97628724    -0.22300
C433        C  0.44879401  0.55753300  0.97788399    -0.22300
C434        C  0.07699997  0.93276181  0.00145660    -0.23300
C435        C  0.07759896  0.96831507  0.00044647    -0.23300
C436        C  0.35514617  0.93405336  0.01311846    -0.23300
C437        C  0.35587744  0.96952706  0.01234844    -0.23300
C438        C  0.02965641  0.88769473  0.99511261    -0.18700
C439        C  0.39975459  0.88867329  0.00048751    -0.18700
C440        C  0.40218764  0.51413606  0.99715146    -0.18700
C441        C  0.03178106  0.51369533  0.99145404    -0.18700
H442        H  0.99759186  0.82189238  0.97634082     0.14300
H443        H  0.42763765  0.82241795  0.97924322     0.14300
H444        H  0.50183507  0.57969531  0.96820675     0.14300
H445        H  0.43219790  0.57971875  0.97129595     0.14300
H446        H  0.10000154  0.91632876  0.00471561     0.12500
H447        H  0.10116126  0.98455474  0.00270055     0.12500
H448        H  0.33175977  0.91793424  0.01817213     0.12500
H449        H  0.33320174  0.98605112  0.01668359     0.12500
H450        H  0.46601977  0.92252342  0.01166892     0.25800
H451        H  0.46713084  0.97976380  0.01056644     0.25800
C452        C  0.05950237  0.54130038  0.99266785     0.02800
C453        C  0.07427855  0.55078356  0.03308191    -0.13400
C454        C  0.09909983  0.57793694  0.03515589     0.00300
C455        C  0.10960193  0.59513402  0.49643193    -0.11900
C456        C  0.09441665  0.58660198  0.45584025     0.02800
C457        C  0.06964220  0.55912328  0.45408537    -0.11300
H458        H  0.06594818  0.53747743  0.06289134     0.08400
H459        H  0.12985393  0.61526341  0.49817396     0.05900
H460        H  0.05771727  0.55201568  0.42307161     0.05700
O461        O  0.20240135  0.73234871  0.34511678    -0.80500
O462        O  0.18182851  0.66368797  0.17926287    -0.80500
O463        O  0.16046076  0.74032097  0.20761115    -0.80500
O464        O  0.16670867  0.65437722  0.27627425    -0.80500
O465        O  0.19856121  0.73038647  0.15687945    -0.80600
O466        O  0.20071812  0.66345607  0.33489428    -0.80500
O467        O  0.19300888  0.61333181  0.21166597    -0.80500
O468        O  0.16182604  0.74205118  0.29447721    -0.80500
C469        C  0.17157159  0.74285867  0.33376022     1.09200
C470        C  0.17682293  0.63045097  0.18214532     1.09100
C471        C  0.16900058  0.74236569  0.16815476     1.09200
C472        C  0.17160429  0.65309032  0.31747600     1.09100
O473        O  0.27142034  0.66719328  0.29347500    -0.80500
O474        O  0.26688263  0.72780348  0.19712045    -0.80600
O475        O  0.23085433  0.77659766  0.29501681    -0.80500
O476        O  0.25479538  0.64859324  0.19922779    -0.80500
O477        O  0.24365947  0.67955435  0.13938368    -0.80500
O478        O  0.27051661  0.73622874  0.29969634    -0.80500
O479        O  0.23461204  0.62545022  0.28305757    -0.80500
O480        O  0.23188326  0.77235080  0.20457893    -0.80500
Co481      Co  0.23618241  0.69983112  0.31496835     1.51500
Co482      Co  0.22595404  0.69557051  0.19245295     1.51700
Co483      Co  0.19689682  0.75466632  0.25031527     1.51600
Co484      Co  0.20885708  0.65477424  0.23808738     1.51500
O485        O  0.21548659  0.70512754  0.25462895    -1.42400
C486        C  0.26353136  0.63584933  0.29954156     1.09100
C487        C  0.26044444  0.75956447  0.18992766     1.09200
C488        C  0.26111103  0.76630048  0.30869161     1.09100
C489        C  0.26088798  0.65561210  0.15817128     1.09100
C490        C  0.11400521  0.58915241  0.07748035    -0.06500
C491        C  0.13640511  0.56691856  0.10131805    -0.17600
C492        C  0.15518388  0.57852074  0.13814227     0.10700
C493        C  0.15224122  0.61353273  0.15071479    -0.06400
C494        C  0.12781075  0.63475509  0.12838370    -0.17600
C495        C  0.10852824  0.62292418  0.09230456     0.10700
S496        S  0.18405325  0.54800769  0.16527183    -0.32600
S497        S  0.07684741  0.65113884  0.06555309    -0.32600
H498        H  0.08554915  0.68139822  0.58838529     0.28800
H499        H  0.16860434  0.55269072  0.20646174     0.28700
H500        H  0.14025278  0.54075325  0.09023133     0.19300
H501        H  0.12452766  0.66115440  0.13841940     0.19300
C502        C  0.10633453  0.60536075  0.41548332    -0.06500
C503        C  0.11660520  0.58621541  0.37908675    -0.17600
C504        C  0.13478563  0.60213449  0.34396742     0.10700
C505        C  0.14468458  0.63734935  0.34657863    -0.06400
C506        C  0.13277018  0.65674612  0.38165402    -0.17600
C507        C  0.11187418  0.64166791  0.41446949     0.10700
S508        S  0.14724870  0.57689262  0.29755676    -0.32600
S509        S  0.09250091  0.67035359  0.45327306    -0.32600
H510        H  0.06349365  0.64868823  0.96320810     0.28800
H511        H  0.13651457  0.54446224  0.31483208     0.28700
H512        H  0.11183994  0.55854054  0.37907004     0.19300
H513        H  0.13998284  0.68387705  0.38371500     0.19300
C514        C  0.28792053  0.63745393  0.13216618    -0.06500
C515        C  0.30385289  0.65627140  0.09754914    -0.17600
C516        C  0.32258561  0.63987675  0.06474375     0.10700
C517        C  0.32484897  0.60337981  0.06533196    -0.06400
C518        C  0.31164862  0.58471687  0.10180020    -0.17600
C519        C  0.29381067  0.60140540  0.13554181     0.10700
S520        S  0.34209463  0.66708783  0.02244191    -0.32600
S521        S  0.27663908  0.57492054  0.17973994    -0.32600
H522        H  0.29150614  0.59592295  0.21243820     0.28800
H523        H  0.37021517  0.64475020  0.01332810     0.28700
H524        H  0.30060245  0.68407933  0.09508725     0.19300
H525        H  0.31375196  0.55676990  0.10303200     0.19300
C526        C  0.32091227  0.58603860  0.40472123    -0.06500
C527        C  0.29125205  0.56903092  0.38687275    -0.17600
C528        C  0.27307973  0.58293672  0.35027390     0.10700
C529        C  0.28503473  0.61475271  0.33117044    -0.06400
C530        C  0.31650399  0.63001369  0.34754687    -0.17600
C531        C  0.33433159  0.61617925  0.38390775     0.10700
S532        S  0.23402787  0.56042990  0.33042219    -0.32600
S533        S  0.37253911  0.63971622  0.40423828    -0.32600
H534        H  0.39066578  0.61052555  0.42028898     0.28800
H535        H  0.23313738  0.53391648  0.36259218     0.28700
H536        H  0.28139421  0.54572101  0.40309010     0.19300
H537        H  0.32655704  0.65405276  0.33330453     0.19300
C538        C  0.11275551  0.80868858  0.07839643    -0.06500
C539        C  0.09323846  0.78609140  0.10571517    -0.17600
C540        C  0.11048909  0.76403537  0.13584397     0.10700
C541        C  0.14814876  0.76391480  0.13746717    -0.06400
C542        C  0.16726055  0.78798895  0.11184556    -0.17600
C543        C  0.14999841  0.81103638  0.08366259     0.10700
S544        S  0.08281433  0.73603083  0.16942532    -0.32600
S545        S  0.17710194  0.84243320  0.05447575    -0.32600
H546        H  0.14964339  0.86603209  0.04582370     0.28800
H547        H  0.10745885  0.70947202  0.17562784     0.28700
H548        H  0.06464049  0.78414029  0.10172157     0.19300
H549        H  0.19599327  0.78942698  0.11449478     0.19300
C550        C  0.14998882  0.76264531  0.36425748    -0.06500
C551        C  0.16796625  0.78849364  0.38752821    -0.17600
C552        C  0.14973048  0.81136631  0.41357776     0.10700
C553        C  0.11275280  0.80716797  0.41920512    -0.06400
C554        C  0.09427905  0.78242817  0.39461769    -0.17600
C555        C  0.11229323  0.76061045  0.36628666     0.10700
S556        S  0.17529393  0.84515421  0.43949106    -0.32000
S557        S  0.08511391  0.73071019  0.33532808    -0.32600
H558        H  0.11161608  0.70834201  0.32171321     0.28800
H559        H  0.14661479  0.86741966  0.44606112     0.28700
H560        H  0.19649608  0.79173152  0.38423255     0.19300
H561        H  0.06589560  0.77900097  0.39908028     0.19300
C562        C  0.31715887  0.80934172  0.08320817    -0.06500
C563        C  0.29213496  0.82822207  0.10628694    -0.17600
C564        C  0.27511904  0.81409822  0.14356183     0.10700
C565        C  0.28296596  0.77972156  0.15784524    -0.06400
C566        C  0.31003218  0.76206467  0.13607217    -0.17600
C567        C  0.32720349  0.77649354  0.09940326     0.10700
S568        S  0.24340126  0.84050457  0.17154525    -0.32600
S569        S  0.36078500  0.75106704  0.07369439    -0.32600
H570        H  0.38060694  0.77899790  0.05612996     0.28800
H571        H  0.24390593  0.86887563  0.14202145     0.28700
H572        H  0.28526202  0.85380874  0.09416889     0.19300
H573        H  0.31712599  0.73610520  0.14656471     0.19300
C574        C  0.31488947  0.81219664  0.41921343    -0.06500
C575        C  0.29142195  0.83243379  0.39382497    -0.17600
C576        C  0.27525432  0.81949747  0.35564808     0.10700
C577        C  0.28223213  0.78523279  0.34263990    -0.06400
C578        C  0.30730446  0.76594875  0.36728071    -0.17600
C579        C  0.32355239  0.77893497  0.40494022     0.10700
S580        S  0.24599438  0.84791651  0.32548130    -0.32600
S581        S  0.35414981  0.75111843  0.43428485    -0.32600
H582        H  0.37618503  0.77773809  0.45028516     0.28800
H583        H  0.25716898  0.83701584  0.28414661     0.28700
H584        H  0.28517009  0.85829214  0.40426827     0.19300
H585        H  0.31351334  0.73971876  0.35833280     0.19300
C586        C  0.37110044  0.86195443  0.50082500     0.02800
C587        C  0.35798977  0.84867926  0.54070874    -0.13400
C588        C  0.33074801  0.82359178  0.54113586     0.00300
C589        C  0.31634335  0.81206243  0.00124187    -0.11900
C590        C  0.32885374  0.82564975  0.96111709     0.02800
C591        C  0.35613064  0.85071929  0.96106576    -0.11300
H592        H  0.36914208  0.85770819  0.57132778     0.08400
H593        H  0.29550052  0.79244729  0.00144776     0.05900
H594        H  0.36613349  0.86106840  0.93026681     0.05700
C595        C  0.05668716  0.85996971  0.49625182     0.02800
C596        C  0.06985427  0.84737252  0.53679275    -0.13400
C597        C  0.09597363  0.82178672  0.53778160     0.00300
C598        C  0.10798030  0.80830020  0.99863937    -0.11900
C599        C  0.09584032  0.82093740  0.95833844     0.02800
C600        C  0.06983950  0.84667390  0.95682142    -0.11300
H601        H  0.06038708  0.85790195  0.56712153     0.08400
H602        H  0.12790720  0.78820491  0.99958163     0.05900
H603        H  0.06034520  0.85665608  0.92553810     0.05700
C604        C  0.37457074  0.54101570  0.49357674     0.02800
C605        C  0.36327236  0.55855096  0.53079541    -0.13400
C606        C  0.33732903  0.58429596  0.52681816     0.00300
C607        C  0.32242666  0.59164623  0.98514927    -0.11900
C608        C  0.33425715  0.57479277  0.94791313     0.02800
C609        C  0.35995741  0.54912484  0.95216349    -0.11300
H610        H  0.37489191  0.55239636  0.56252610     0.08400
H611        H  0.30197870  0.61104078  0.98161919     0.05900
H612        H  0.36918912  0.53605902  0.92337155     0.05700
N613        N  0.46499250  0.89776297  0.49968339    -0.37000
N614        N  0.02087077  0.95072403  0.49276086    -0.57500
N615        N  0.46690065  0.50428949  0.49648576    -0.37000
N616        N  0.41113648  0.95135702  0.49966211    -0.57500
C617        C  0.49334766  0.87755464  0.49202730     0.26600
C618        C  0.43530030  0.87800963  0.49445794     0.26600
C619        C  0.49587876  0.52414065  0.48744831     0.26600
C620        C  0.43797472  0.52434641  0.49036546     0.26600
C621        C  0.04167849  0.92253845  0.49716161     0.35200
C622        C  0.04262833  0.97875707  0.49545245     0.35200
C623        C  0.38955733  0.92349240  0.50548140     0.35200
C624        C  0.39066399  0.97952638  0.50410817     0.35200
C625        C  0.48153070  0.84433569  0.48268298    -0.22300
C626        C  0.44499722  0.84463863  0.48412773    -0.22300
C627        C  0.48519567  0.55746626  0.47638355    -0.22300
C628        C  0.44875188  0.55752882  0.47802599    -0.22300
C629        C  0.07697892  0.93274117  0.50155761    -0.23300
C630        C  0.07757886  0.96829475  0.50046675    -0.23300
C631        C  0.35512322  0.93405010  0.51331473    -0.23300
C632        C  0.35583800  0.96952468  0.51247026    -0.23300
C633        C  0.02962661  0.88768570  0.49523347    -0.18700
C634        C  0.39975929  0.88869622  0.50068298    -0.18700
C635        C  0.40216293  0.51411764  0.49727736    -0.18700
C636        C  0.03174899  0.51367430  0.49143788    -0.18700
H637        H  0.99752093  0.82204387  0.47579090     0.14300
H638        H  0.42760153  0.82261894  0.47856836     0.14300
H639        H  0.50178199  0.57970292  0.46833942     0.14300
H640        H  0.43215472  0.57972671  0.47151138     0.14300
H641        H  0.09998064  0.91630744  0.50480973     0.12500
H642        H  0.10114264  0.98453824  0.50265736     0.12500
H643        H  0.33172509  0.91792706  0.51826440     0.12500
H644        H  0.33313849  0.98604553  0.51665553     0.12500
H645        H  0.46604150  0.92242386  0.51229754     0.25800
H646        H  0.46711151  0.97971865  0.51052308     0.25800
C647        C  0.05945245  0.54128531  0.49261128     0.02800
C648        C  0.07419200  0.55084073  0.53301456    -0.13400
C649        C  0.09896505  0.57803706  0.53504841     0.00300
C650        C  0.10975718  0.59506305  0.99656561    -0.11900
C651        C  0.09454109  0.58660913  0.95596317     0.02800
C652        C  0.06971441  0.55917145  0.95416970    -0.11300
H653        H  0.06587290  0.53755513  0.56284309     0.08400
H654        H  0.13003975  0.61516129  0.99833976     0.05900
H655        H  0.05777319  0.55211662  0.92314538     0.05700
O656        O  0.20243185  0.73233676  0.84505919    -0.80500
O657        O  0.18187631  0.66377035  0.67911699    -0.80500
O658        O  0.16052224  0.74027494  0.70756702    -0.80500
O659        O  0.16665870  0.65446254  0.77629415    -0.80500
O660        O  0.19866482  0.73045285  0.65685084    -0.80600
O661        O  0.20076420  0.66346193  0.83485378    -0.80500
O662        O  0.19285515  0.61340141  0.71160116    -0.80500
O663        O  0.16184289  0.74204260  0.79442609    -0.80500
C664        C  0.17159200  0.74282840  0.83371172     1.09200
C665        C  0.17678004  0.63054638  0.68200792     1.09100
C666        C  0.16907474  0.74236659  0.66812219     1.09200
C667        C  0.17160709  0.65315758  0.81749001     1.09100
O668        O  0.27142726  0.66716209  0.79336964    -0.80500
O669        O  0.26696863  0.72779681  0.69720236    -0.80600
O670        O  0.23083384  0.77660197  0.79496424    -0.80500
O671        O  0.25470541  0.64856985  0.69920565    -0.80500
O672        O  0.24375668  0.67962080  0.63937141    -0.80500
O673        O  0.27052290  0.73625132  0.79959363    -0.80500
O674        O  0.23455327  0.62545149  0.78297117    -0.80500
O675        O  0.23194973  0.77233900  0.70457700    -0.80500
Co676      Co  0.23621452  0.69982862  0.81489826     1.51500
Co677      Co  0.22601838  0.69560595  0.69242508     1.51700
Co678      Co  0.19691818  0.75465869  0.75027186     1.51600
Co679      Co  0.20877561  0.65480711  0.73805236     1.51500
O680        O  0.21549893  0.70513090  0.75458789    -1.42400
C681        C  0.26352422  0.63580722  0.79937294     1.09100
C682        C  0.26054456  0.75955807  0.69000713     1.09200
C683        C  0.26109449  0.76631528  0.80861544     1.09100
C684        C  0.26089575  0.65562913  0.65818633     1.09100
C685        C  0.11389411  0.58928422  0.57734645    -0.06500
C686        C  0.13627506  0.56704263  0.60119422    -0.17600
C687        C  0.15508663  0.57864622  0.63798798     0.10700
C688        C  0.15220221  0.61367093  0.65052509    -0.06400
C689        C  0.12780988  0.63492097  0.62815878    -0.17600
C690        C  0.10843845  0.62306769  0.59214900     0.10700
S691        S  0.18397256  0.54812630  0.66507318    -0.32600
S692        S  0.07673349  0.65125393  0.56535327    -0.32600
H693        H  0.08793923  0.68186214  0.08587682     0.28800
H694        H  0.16851892  0.55276007  0.70627197     0.28700
H695        H  0.14008678  0.54086485  0.59013205     0.19300
H696        H  0.12467098  0.66136125  0.63808324     0.19300
C697        C  0.10647623  0.60539911  0.91562935    -0.06500
C698        C  0.11670855  0.58627225  0.87919940    -0.17600
C699        C  0.13487444  0.60219806  0.84407667     0.10700
C700        C  0.14471952  0.63742436  0.84664233    -0.06400
C701        C  0.13287414  0.65680219  0.88177293    -0.17600
C702        C  0.11205290  0.64170523  0.91465289     0.10700
S703        S  0.14737892  0.57694077  0.79770443    -0.32600
S704        S  0.09282649  0.67037353  0.95358880    -0.32600
H705        H  0.06321219  0.64861016  0.46289217     0.28800
H706        H  0.13845975  0.54434167  0.81601234     0.28700
H707        H  0.11190159  0.55860383  0.87913518     0.19300
H708        H  0.14009777  0.68393014  0.88383749     0.19300
C709        C  0.28795461  0.63745556  0.63226767    -0.06500
C710        C  0.30399868  0.65628080  0.59773997    -0.17600
C711        C  0.32277390  0.63988334  0.56498460     0.10700
C712        C  0.32496607  0.60338408  0.56554251    -0.06400
C713        C  0.31166812  0.58470873  0.60194163    -0.17600
C714        C  0.29378379  0.60139743  0.63563596     0.10700
S715        S  0.34240475  0.66708933  0.52276181    -0.32600
S716        S  0.27646955  0.57490425  0.67974151    -0.32600
H717        H  0.29131616  0.59584504  0.71251646     0.28800
H718        H  0.37048313  0.64469530  0.51367090     0.28700
H719        H  0.30079571  0.68409530  0.59529786     0.19300
H720        H  0.31371840  0.55675672  0.60314002     0.19300
C721        C  0.32089461  0.58592275  0.90447351    -0.06500
C722        C  0.29133128  0.56884558  0.88647202    -0.17600
C723        C  0.27321676  0.58273761  0.84981118     0.10700
C724        C  0.28508881  0.61464006  0.83086683    -0.06400
C725        C  0.31651852  0.62991959  0.84731847    -0.17600
C726        C  0.33430867  0.61609072  0.88370871     0.10700
S727        S  0.23435879  0.56009089  0.82963924    -0.32600
S728        S  0.37242716  0.63971321  0.90414300    -0.32600
H729        H  0.39046508  0.61064179  0.92069759     0.28800
H730        H  0.23391487  0.53309472  0.86117041     0.28700
H731        H  0.28149248  0.54549750  0.90261735     0.19300
H732        H  0.32654705  0.65399205  0.83314216     0.19300
C733        C  0.11266349  0.80860651  0.57846461    -0.06500
C734        C  0.09320847  0.78589257  0.60569677    -0.17600
C735        C  0.11051745  0.76387034  0.63580936     0.10700
C736        C  0.14817792  0.76388614  0.63746817    -0.06400
C737        C  0.16722153  0.78807754  0.61194589    -0.17600
C738        C  0.14989047  0.81110146  0.58379908     0.10700
S739        S  0.08291001  0.73576783  0.66935603    -0.32600
S740        S  0.17688371  0.84266786  0.55474860    -0.32600
H741        H  0.14932870  0.86616983  0.54614565     0.28800
H742        H  0.10766259  0.70933524  0.67576017     0.28700
H743        H  0.06462083  0.78384002  0.60166031     0.19300
H744        H  0.19594675  0.78962913  0.61465417     0.19300
C745        C  0.14999929  0.76258269  0.86422422    -0.06500
C746        C  0.16793924  0.78850917  0.88739914    -0.17600
C747        C  0.14967457  0.81137623  0.91342474     0.10700
C748        C  0.11271789  0.80708545  0.91914402    -0.06400
C749        C  0.09428007  0.78224514  0.89467751    -0.17600
C750        C  0.11231298  0.76044443  0.86634426     0.10700
S751        S  0.17517118  0.84528523  0.93918548    -0.32000
S752        S  0.08516807  0.73044627  0.83548910    -0.32600
H753        H  0.11172211  0.70822968  0.82164280     0.28800
H754        H  0.14644001  0.86750235  0.94568251     0.28700
H755        H  0.19645570  0.79181883  0.88403162     0.19300
H756        H  0.06591387  0.77874345  0.89921943     0.19300
C757        C  0.31720454  0.80929474  0.58326001    -0.06500
C758        C  0.29221067  0.82818878  0.60637394    -0.17600
C759        C  0.27530068  0.81410864  0.64374763     0.10700
C760        C  0.28310398  0.77971197  0.65797012    -0.06400
C761        C  0.31017094  0.76205678  0.63619552    -0.17600
C762        C  0.32733375  0.77649275  0.59952350     0.10700
S763        S  0.24376130  0.84057547  0.67194218    -0.32600
S764        S  0.36105413  0.75116426  0.57393343    -0.32600
H765        H  0.38083838  0.77916273  0.55647433     0.28800
H766        H  0.24581619  0.86979850  0.64388887     0.28700
H767        H  0.28527610  0.85374557  0.59420913     0.19300
H768        H  0.31728771  0.73610848  0.64670906     0.19300
C769        C  0.31470548  0.81221921  0.91922000    -0.06500
C770        C  0.29136366  0.83249288  0.89369558    -0.17600
C771        C  0.27523825  0.81953903  0.85550364     0.10700
C772        C  0.28215864  0.78523469  0.84260526    -0.06400
C773        C  0.30707638  0.76589831  0.86740811    -0.17600
C774        C  0.32324837  0.77888010  0.90510786     0.10700
S775        S  0.24611403  0.84798817  0.82517069    -0.32600
S776        S  0.35356893  0.75093961  0.93471365    -0.32600
H777        H  0.37566548  0.77745213  0.95086660     0.28800
H778        H  0.25729547  0.83695622  0.78389882     0.28700
H779        H  0.28517933  0.85839375  0.90403990     0.19300
H780        H  0.31320471  0.73962532  0.85856581     0.19300
C781        C  0.87104378  0.36195207  0.00065317     0.02800
C782        C  0.85797933  0.34866979  0.04056422    -0.13400
C783        C  0.83068575  0.32362841  0.04103731     0.00300
C784        C  0.81649356  0.31193331  0.50120984    -0.11900
C785        C  0.82903257  0.32556722  0.46111466     0.02800
C786        C  0.85623523  0.35071132  0.46114675    -0.11300
H787        H  0.86919394  0.35766854  0.07116354     0.08400
H788        H  0.79571101  0.29225855  0.50135859     0.05900
H789        H  0.86627104  0.36108973  0.43037932     0.05700
C790        C  0.55670319  0.35997663  0.99614712     0.02800
C791        C  0.56992171  0.34742450  0.03668623    -0.13400
C792        C  0.59601668  0.32181212  0.03767303     0.00300
C793        C  0.60786980  0.30824145  0.49874190    -0.11900
C794        C  0.59581580  0.32094596  0.45843281     0.02800
C795        C  0.56983649  0.34670448  0.45690368    -0.11300
H796        H  0.56049995  0.35799621  0.06701220     0.08400
H797        H  0.62778965  0.28813965  0.49970081     0.05900
H798        H  0.56040649  0.35673970  0.42561746     0.05700
C799        C  0.87457058  0.04100868  0.99341006     0.02800
C800        C  0.86324422  0.05854221  0.03062397    -0.13400
C801        C  0.83725924  0.08425432  0.02664351     0.00300
C802        C  0.82252075  0.09171694  0.48533903    -0.11900
C803        C  0.83434826  0.07489061  0.44809172     0.02800
C804        C  0.86001236  0.04918921  0.45231269    -0.11300
H805        H  0.87487322  0.05241026  0.06235576     0.08400
H806        H  0.80209290  0.11113442  0.48182909     0.05900
H807        H  0.86923870  0.03614023  0.42350552     0.05700
N808        N  0.96496077  0.39776047  0.99936762    -0.37000
N809        N  0.52088735  0.45074550  0.99267179    -0.57500
N810        N  0.96692835  0.00430805  0.99640246    -0.37000
N811        N  0.91111876  0.45136820  0.99931895    -0.57500
C812        C  0.99333545  0.37750297  0.99202679     0.26600
C813        C  0.93527548  0.37795532  0.99438648     0.26600
C814        C  0.99591174  0.02415571  0.98736529     0.26600
C815        C  0.93799993  0.02435266  0.99021140     0.26600
C816        C  0.54168650  0.42254481  0.99699746     0.35200
C817        C  0.54265248  0.47877124  0.99543191     0.35200
C818        C  0.88953256  0.42350305  0.00514500     0.35200
C819        C  0.89067516  0.47954273  0.00391046     0.35200
C820        C  0.98153308  0.34419236  0.98313079    -0.22300
C821        C  0.94499399  0.34449422  0.98452775    -0.22300
C822        C  0.98522824  0.05746947  0.97623790    -0.22300
C823        C  0.94877979  0.05752544  0.97783496    -0.22300
C824        C  0.57699009  0.43273890  0.00140658    -0.23300
C825        C  0.57759932  0.46829290  0.00041671    -0.23300
C826        C  0.85512281  0.43407099  0.01309930    -0.23300
C827        C  0.85586186  0.46954529  0.01235377    -0.23300
C828        C  0.52962948  0.38768133  0.99511780    -0.18700
C829        C  0.89972333  0.38868629  0.00044414    -0.18700
C830        C  0.90218503  0.01412043  0.99711231    -0.18700
C831        C  0.53178787  0.01368744  0.99142194    -0.18700
H832        H  0.49755581  0.32183581  0.97658652     0.14300
H833        H  0.92760875  0.32241389  0.97928084     0.14300
H834        H  0.00181538  0.07970132  0.96817540     0.14300
H835        H  0.93218070  0.07971164  0.97126395     0.14300
H836        H  0.59998827  0.41629873  0.00463945     0.12500
H837        H  0.60116716  0.48452609  0.00265905     0.12500
H838        H  0.83173355  0.41795406  0.01814359     0.12500
H839        H  0.83318939  0.48607195  0.01669771     0.12500
H840        H  0.96599075  0.42254773  0.01156446     0.25800
H841        H  0.96711926  0.47979036  0.01065522     0.25800
C842        C  0.55950437  0.04129422  0.99264673     0.02800
C843        C  0.57427600  0.05077258  0.03306521    -0.13400
C844        C  0.59908993  0.07793157  0.03514896     0.00300
C845        C  0.60959508  0.09513596  0.49639724    -0.11900
C846        C  0.59438959  0.08661063  0.45581431     0.02800
C847        C  0.56961727  0.05913077  0.45406866    -0.11300
H848        H  0.56594736  0.03745859  0.06286992     0.08400
H849        H  0.62984119  0.11527161  0.49813030     0.05900
H850        H  0.55767679  0.05202955  0.42306120     0.05700
O851        O  0.70240853  0.23237440  0.34509234    -0.80500
O852        O  0.68185224  0.16367420  0.17922828    -0.80500
O853        O  0.66045647  0.24031405  0.20759102    -0.80500
O854        O  0.66669104  0.15439694  0.27627553    -0.80500
O855        O  0.69856128  0.23037143  0.15686230    -0.80600
O856        O  0.70069941  0.16348181  0.33489652    -0.80500
O857        O  0.69298164  0.11332589  0.21168243    -0.80500
O858        O  0.66182634  0.24207021  0.29446063    -0.80500
C859        C  0.67157551  0.24287734  0.33374279     1.09200
C860        C  0.67682186  0.13044093  0.18213602     1.09100
C861        C  0.66899357  0.24234175  0.16813200     1.09200
C862        C  0.67158504  0.15311506  0.31747841     1.09100
O863        O  0.77140714  0.16718469  0.29348725    -0.80500
O864        O  0.76689027  0.22781244  0.19712000    -0.80600
O865        O  0.73086407  0.27660790  0.29497488    -0.80500
O866        O  0.75477942  0.14857152  0.19923096    -0.80500
O867        O  0.74369752  0.17955286  0.13938395    -0.80500
O868        O  0.77051829  0.23623034  0.29966326    -0.80500
O869        O  0.73458216  0.12545327  0.28307021    -0.80500
O870        O  0.73187474  0.27235033  0.20453966    -0.80500
Co871      Co  0.73617672  0.19984224  0.31495496     1.51500
Co872      Co  0.72596969  0.19556815  0.19244189     1.51700
Co873      Co  0.69689540  0.25467022  0.25028711     1.51600
Co874      Co  0.70883841  0.15477372  0.23808714     1.51500
O875        O  0.71548181  0.20512813  0.25461178    -1.42400
C876        C  0.76350373  0.13584377  0.29955687     1.09100
C877        C  0.76044478  0.25956931  0.18990754     1.09200
C878        C  0.76112251  0.26630878  0.30864432     1.09100
C879        C  0.76090086  0.15559704  0.15818141     1.09100
C880        C  0.61399224  0.08914406  0.07747696    -0.06500
C881        C  0.63638981  0.06690843  0.10131512    -0.17600
C882        C  0.65517044  0.07850940  0.13813883     0.10700
C883        C  0.65223534  0.11352304  0.15070781    -0.06400
C884        C  0.62780454  0.13474657  0.12837844    -0.17600
C885        C  0.60851297  0.12291459  0.09230521     0.10700
S886        S  0.68403624  0.04799350  0.16526762    -0.32600
S887        S  0.57682676  0.15112495  0.06555050    -0.32600
H888        H  0.58519120  0.18126476  0.58876622     0.28800
H889        H  0.66859289  0.05268112  0.20645949     0.28700
H890        H  0.64023502  0.04074274  0.09022837     0.19300
H891        H  0.62453506  0.16114868  0.13840754     0.19300
C892        C  0.60628942  0.10537601  0.41545540    -0.06500
C893        C  0.61655975  0.08623780  0.37905379    -0.17600
C894        C  0.63474352  0.10216356  0.34394171     0.10700
C895        C  0.64466284  0.13737256  0.34657894    -0.06400
C896        C  0.63274239  0.15676415  0.38165709    -0.17600
C897        C  0.61182681  0.14168239  0.41445189     0.10700
S898        S  0.64719114  0.07693555  0.29751122    -0.32600
S899        S  0.59241917  0.17035833  0.45324034    -0.32600
H900        H  0.56348718  0.14869463  0.96318670     0.28800
H901        H  0.63609209  0.04454848  0.31456349     0.28700
H902        H  0.61179838  0.05856244  0.37903293     0.19300
H903        H  0.63995788  0.18389368  0.38373074     0.19300
C904        C  0.78793948  0.13742758  0.13219581    -0.06500
C905        C  0.80392283  0.15624717  0.09761590    -0.17600
C906        C  0.82266615  0.13984900  0.06482158     0.10700
C907        C  0.82488005  0.10334931  0.06537610    -0.06400
C908        C  0.81163154  0.08468032  0.10181161    -0.17600
C909        C  0.79378976  0.10137105  0.13554859     0.10700
S910        S  0.84225291  0.16705712  0.02257182    -0.32600
S911        S  0.77656467  0.07488276  0.17971046    -0.32600
H912        H  0.79142758  0.09585901  0.21243836     0.28800
H913        H  0.87034247  0.14468073  0.01346484     0.28700
H914        H  0.80070531  0.18405978  0.09517367     0.19300
H915        H  0.81370011  0.05673011  0.10301899     0.19300
C916        C  0.82091483  0.08600506  0.40469255    -0.06500
C917        C  0.79119843  0.06904125  0.38692164    -0.17600
C918        C  0.77300954  0.08295343  0.35034052     0.10700
C919        C  0.78500243  0.11473550  0.33117851    -0.06400
C920        C  0.81651904  0.12995302  0.34748290    -0.17600
C921        C  0.83436650  0.11610579  0.38382212     0.10700
S922        S  0.73387810  0.06051167  0.33060893    -0.32600
S923        S  0.87264489  0.13957319  0.40407049    -0.32600
H924        H  0.89080013  0.11030866  0.41984483     0.28800
H925        H  0.73307451  0.03392789  0.36268876     0.28700
H926        H  0.78130924  0.04576712  0.40319297     0.19300
H927        H  0.82659911  0.15396572  0.33319749     0.19300
C928        C  0.61271476  0.30862349  0.07835240    -0.06500
C929        C  0.59320816  0.28601660  0.10567014    -0.17600
C930        C  0.61046821  0.26397118  0.13580428     0.10700
C931        C  0.64812887  0.26386824  0.13743065    -0.06400
C932        C  0.66722946  0.28794574  0.11180201    -0.17600
C933        C  0.64995773  0.31098274  0.08361433     0.10700
S934        S  0.58280184  0.23596430  0.16939419    -0.32600
S935        S  0.67705227  0.34238628  0.05442666    -0.32600
H936        H  0.64958621  0.36597115  0.04574905     0.28800
H937        H  0.60746819  0.20943364  0.17566268     0.28700
H938        H  0.56461065  0.28405515  0.10167821     0.19300
H939        H  0.69596163  0.28939808  0.11445363     0.19300
C940        C  0.64998677  0.26264366  0.36425635    -0.06500
C941        C  0.66796395  0.28845866  0.38758465    -0.17600
C942        C  0.64972727  0.31130770  0.41366525     0.10700
C943        C  0.61274204  0.30712826  0.41924652    -0.06400
C944        C  0.59427042  0.28241668  0.39461128    -0.17600
C945        C  0.61229042  0.26061280  0.36626819     0.10700
S946        S  0.67530470  0.34503691  0.43967892    -0.32000
S947        S  0.58511855  0.23072700  0.33527821    -0.32600
H948        H  0.61162228  0.20834786  0.32169489     0.28800
H949        H  0.64664527  0.36731976  0.44627851     0.28700
H950        H  0.69649701  0.29168778  0.38431584     0.19300
H951        H  0.56588296  0.27899852  0.39904596     0.19300
C952        C  0.81714410  0.30933034  0.08316238    -0.06500
C953        C  0.79211731  0.32821078  0.10623713    -0.17600
C954        C  0.77511068  0.31409400  0.14352274     0.10700
C955        C  0.78296738  0.27972421  0.15782251    -0.06400
C956        C  0.81003987  0.26206977  0.13605822    -0.17600
C957        C  0.82720499  0.27649257  0.09937954     0.10700
S958        S  0.74341304  0.34051168  0.17152060    -0.32600
S959        S  0.86080706  0.25107463  0.07369738    -0.32600
H960        H  0.88060115  0.27900587  0.05608637     0.28800
H961        H  0.74362842  0.36871378  0.14173339     0.28700
H962        H  0.78524483  0.35379772  0.09411918     0.19300
H963        H  0.81714478  0.23611733  0.14656763     0.19300
C964        C  0.81491706  0.31219603  0.41916047    -0.06500
C965        C  0.79143518  0.33243138  0.39379003    -0.17600
C966        C  0.77526983  0.31950473  0.35560585     0.10700
C967        C  0.78225950  0.28524814  0.34257466    -0.06400
C968        C  0.80735692  0.26597250  0.36718645    -0.17600
C969        C  0.82360360  0.27894945  0.40485311     0.10700
S970        S  0.74600049  0.34792668  0.32545828    -0.32600
S971        S  0.85422412  0.25113461  0.43416243    -0.32600
H972        H  0.87621453  0.27775485  0.45024882     0.28800
H973        H  0.75716568  0.33703403  0.28411603     0.28700
H974        H  0.78516927  0.35828073  0.40425430     0.19300
H975        H  0.81358339  0.23975234  0.35821404     0.19300
C976        C  0.87106575  0.36197369  0.50082355     0.02800
C977        C  0.85793842  0.34869211  0.54069581    -0.13400
C978        C  0.83071682  0.32358304  0.54109989     0.00300
C979        C  0.81633914  0.31204164  0.00119031    -0.11900
C980        C  0.82884155  0.32564006  0.96106606     0.02800
C981        C  0.85610574  0.35072351  0.96101828    -0.11300
H982        H  0.86906700  0.35772799  0.57132409     0.08400
H983        H  0.79550566  0.29241716  0.00139391     0.05900
H984        H  0.86610403  0.36107918  0.93022040     0.05700
C985        C  0.55666964  0.35997702  0.49623178     0.02800
C986        C  0.56980836  0.34738033  0.53678584    -0.13400
C987        C  0.59589859  0.32176811  0.53780262     0.00300
C988        C  0.60791177  0.30824836  0.99859716    -0.11900
C989        C  0.59577508  0.32090721  0.95830485     0.02800
C990        C  0.56979060  0.34665834  0.95680512    -0.11300
H991        H  0.56033980  0.35792780  0.56710352     0.08400
H992        H  0.62783048  0.28814520  0.99952497     0.05900
H993        H  0.56029909  0.35665598  0.92552812     0.05700
C994        C  0.87457669  0.04101431  0.49357454     0.02800
C995        C  0.86324865  0.05853826  0.53078913    -0.13400
C996        C  0.83729959  0.08427744  0.52679469     0.00300
C997        C  0.82245889  0.09166829  0.98518412    -0.11900
C998        C  0.83428228  0.07483347  0.94793100     0.02800
C999        C  0.85996486  0.04914651  0.95215734    -0.11300
H1000       H  0.87485086  0.05238147  0.56252871     0.08400
H1001       H  0.80202728  0.11108100  0.98167203     0.05900
H1002       H  0.86919462  0.03609769  0.92335171     0.05700
N1003       N  0.96496796  0.39777186  0.49969485    -0.37000
N1004       N  0.52086165  0.45073639  0.49276710    -0.57500
N1005       N  0.96690728  0.00428277  0.49643731    -0.37000
N1006       N  0.91112411  0.45137267  0.49967856    -0.57500
C1007       C  0.99332183  0.37755186  0.49207778     0.26600
C1008       C  0.93527304  0.37801445  0.49450984     0.26600
C1009       C  0.99588554  0.02413205  0.48739855     0.26600
C1010       C  0.93798185  0.02434459  0.49034215     0.26600
C1011       C  0.54167048  0.42254858  0.49712252     0.35200
C1012       C  0.54262243  0.47876659  0.49546116     0.35200
C1013       C  0.88953564  0.42351266  0.50548756     0.35200
C1014       C  0.89066047  0.47954711  0.50413096     0.35200
C1015       C  0.98150080  0.34432081  0.48280393    -0.22300
C1016       C  0.94496767  0.34462839  0.48424952    -0.22300
C1017       C  0.98520268  0.05746144  0.47635013    -0.22300
C1018       C  0.94875905  0.05752832  0.47801005    -0.22300
C1019       C  0.57697439  0.43274804  0.50149106    -0.23300
C1020       C  0.57757564  0.46830174  0.50043135    -0.23300
C1021       C  0.85510435  0.43407899  0.51331839    -0.23300
C1022       C  0.85583083  0.46955370  0.51248705    -0.23300
C1023       C  0.52961497  0.38769698  0.49519111    -0.18700
C1024       C  0.89973047  0.38871237  0.50070161    -0.18700
C1025       C  0.90217300  0.01411998  0.49728599    -0.18700
C1026       C  0.53174847  0.01367209  0.49143263    -0.18700
H1027       H  0.49751526  0.32204818  0.47577853     0.14300
H1028       H  0.92757084  0.32260143  0.47873831     0.14300
H1029       H  0.00178923  0.07970086  0.46831970     0.14300
H1030       H  0.93216297  0.07973212  0.47152477     0.14300
H1031       H  0.59997727  0.41631199  0.50470390     0.12500
H1032       H  0.60114145  0.48454376  0.50260925     0.12500
H1033       H  0.83170180  0.41796164  0.51826507     0.12500
H1034       H  0.83313623  0.48608040  0.51667537     0.12500
H1035       H  0.96602046  0.42245310  0.51224249     0.25800
H1036       H  0.96711215  0.47974772  0.51060936     0.25800
C1037       C  0.55945082  0.04128298  0.49259649     0.02800
C1038       C  0.57421283  0.05082786  0.53299179    -0.13400
C1039       C  0.59898391  0.07802635  0.53501642     0.00300
C1040       C  0.60974502  0.09506586  0.99656365    -0.11900
C1041       C  0.59453347  0.08661498  0.95595782     0.02800
C1042       C  0.56971129  0.05917501  0.95415486    -0.11300
H1043       H  0.56590993  0.03753461  0.56282203     0.08400
H1044       H  0.63002463  0.11516646  0.99834410     0.05900
H1045       H  0.55777201  0.05212379  0.92312792     0.05700
O1046       O  0.70241632  0.23237677  0.84502111    -0.80500
O1047       O  0.68185336  0.16376596  0.67911928    -0.80500
O1048       O  0.66048198  0.24025565  0.70754935    -0.80500
O1049       O  0.66667657  0.15445056  0.77631513    -0.80500
O1050       O  0.69862088  0.23045250  0.65682657    -0.80600
O1051       O  0.70078863  0.16349479  0.83486058    -0.80500
O1052       O  0.69286087  0.11340024  0.71159704    -0.80500
O1053       O  0.66181327  0.24205462  0.79439631    -0.80500
C1054       C  0.67156889  0.24285121  0.83367846     1.09200
C1055       C  0.67677433  0.13053962  0.68200546     1.09100
C1056       C  0.66902642  0.24235318  0.66810389     1.09200
C1057       C  0.67163714  0.15315972  0.81750978     1.09100
O1058       O  0.77143622  0.16722017  0.79334615    -0.80500
O1059       O  0.76693349  0.22780378  0.69718075    -0.80600
O1060       O  0.73078769  0.27664414  0.79490963    -0.80500
O1061       O  0.75469467  0.14858864  0.69918047    -0.80500
O1062       O  0.74372095  0.17962885  0.63934594    -0.80500
O1063       O  0.77048947  0.23630880  0.79950239    -0.80500
O1064       O  0.73458707  0.12548507  0.78296920    -0.80500
O1065       O  0.73190651  0.27234310  0.70452859    -0.80500
Co1066     Co  0.73621080  0.19987549  0.81486538     1.51500
Co1067     Co  0.72598728  0.19561300  0.69240562     1.51700
Co1068     Co  0.69687868  0.25466914  0.75023340     1.51600
Co1069     Co  0.70877592  0.15481294  0.73804728     1.51500
O1070       O  0.71547300  0.20514493  0.75456646    -1.42400
C1071       C  0.76354849  0.13586493  0.79937566     1.09100
C1072       C  0.76050818  0.25956234  0.68997607     1.09200
C1073       C  0.76105622  0.26636657  0.80854164     1.09100
C1074       C  0.76086636  0.15563956  0.65815516     1.09100
C1075       C  0.61392023  0.08927577  0.57731078    -0.06500
C1076       C  0.63629545  0.06703390  0.60116748    -0.17600
C1077       C  0.65509197  0.07863497  0.63797532     0.10700
C1078       C  0.65220433  0.11365932  0.65051325    -0.06400
C1079       C  0.62781899  0.13490933  0.62813292    -0.17600
C1080       C  0.60845210  0.12305505  0.59211959     0.10700
S1081       S  0.68395650  0.04810936  0.66508401    -0.32600
S1082       S  0.57674498  0.15123559  0.56531370    -0.32600
H1083       H  0.58764995  0.18179244  0.08620288     0.28800
H1084       H  0.66850362  0.05276836  0.70627768     0.28700
H1085       H  0.64010929  0.04085599  0.59010706     0.19300
H1086       H  0.62468925  0.16135362  0.63804268     0.19300
C1087       C  0.60647786  0.10540352  0.91562907    -0.06500
C1088       C  0.61671933  0.08627399  0.87920581    -0.17600
C1089       C  0.63490574  0.10219489  0.84409612     0.10700
C1090       C  0.64476378  0.13741815  0.84667439    -0.06400
C1091       C  0.63290945  0.15679904  0.88179746    -0.17600
C1092       C  0.61206576  0.14170772  0.91465902     0.10700
S1093       S  0.64743007  0.07693415  0.79773322    -0.32600
S1094       S  0.59282191  0.17038018  0.95357710    -0.32600
H1095       H  0.56314014  0.14859785  0.46284506     0.28800
H1096       H  0.63815258  0.04436130  0.81584368     0.28700
H1097       H  0.61191054  0.05860593  0.87914425     0.19300
H1098       H  0.64013428  0.18392707  0.88386280     0.19300
C1099       C  0.78790888  0.13745440  0.63222484    -0.06500
C1100       C  0.80396574  0.15627363  0.59770128    -0.17600
C1101       C  0.82274170  0.13986827  0.56495144     0.10700
C1102       C  0.82491754  0.10336763  0.56550795    -0.06400
C1103       C  0.81159187  0.08469556  0.60189332    -0.17600
C1104       C  0.79370942  0.10139130  0.63558312     0.10700
S1105       S  0.84239792  0.16706568  0.52273744    -0.32600
S1106       S  0.77636082  0.07490267  0.67967163    -0.32600
H1107       H  0.79123325  0.09581348  0.71246016     0.28800
H1108       H  0.87047046  0.14466163  0.51365790     0.28700
H1109       H  0.80077715  0.18408987  0.59526206     0.19300
H1110       H  0.81362364  0.05674199  0.60308623     0.19300
C1111       C  0.82092544  0.08599575  0.90450153    -0.06500
C1112       C  0.79140298  0.06888908  0.88644553    -0.17600
C1113       C  0.77328642  0.08278563  0.84978923     0.10700
C1114       C  0.78511312  0.11472541  0.83090345    -0.06400
C1115       C  0.81650042  0.13004728  0.84741865    -0.17600
C1116       C  0.83429508  0.11621130  0.88380295     0.10700
S1117       S  0.73446146  0.06010836  0.82957460    -0.32600
S1118       S  0.87236464  0.13987644  0.90430147    -0.32600
H1119       H  0.89039761  0.11084500  0.92098123     0.28800
H1120       H  0.73440032  0.03276139  0.86061850     0.28700
H1121       H  0.78158508  0.04551855  0.90255777     0.19300
H1122       H  0.82649414  0.15415121  0.83329204     0.19300
C1123       C  0.61257389  0.30859867  0.57849769    -0.06500
C1124       C  0.59313359  0.28583928  0.60568522    -0.17600
C1125       C  0.61045571  0.26381699  0.63578580     0.10700
C1126       C  0.64811669  0.26387302  0.63746530    -0.06400
C1127       C  0.66714221  0.28811034  0.61199162    -0.17600
C1128       C  0.64979391  0.31113807  0.58386631     0.10700
S1129       S  0.58286336  0.23566923  0.66929303    -0.32600
S1130       S  0.67675497  0.34276673  0.55488079    -0.32600
H1131       H  0.64917045  0.36624371  0.54631595     0.28800
H1132       H  0.60765508  0.20928054  0.67575691     0.28700
H1133       H  0.56455036  0.28375414  0.60162274     0.19300
H1134       H  0.69586458  0.28969479  0.61472314     0.19300
C1135       C  0.64996688  0.26259486  0.86419040    -0.06500
C1136       C  0.66789344  0.28852377  0.88737565    -0.17600
C1137       C  0.64961368  0.31138290  0.91339560     0.10700
C1138       C  0.61265761  0.30707836  0.91910205    -0.06400
C1139       C  0.59423230  0.28223914  0.89462049    -0.17600
C1140       C  0.61228051  0.26044715  0.86629201     0.10700
S1141       S  0.67508874  0.34529935  0.93917070    -0.32000
S1142       S  0.58515802  0.23044514  0.83541488    -0.32600
H1143       H  0.61172194  0.20819855  0.82166928     0.28800
H1144       H  0.64634703  0.36750985  0.94563790     0.28700
H1145       H  0.69640993  0.29184232  0.88401976     0.19300
H1146       H  0.56586568  0.27872905  0.89914971     0.19300
C1147       C  0.81716104  0.30927675  0.58321384    -0.06500
C1148       C  0.79218755  0.32818295  0.60634625    -0.17600
C1149       C  0.77526873  0.31410036  0.64371136     0.10700
C1150       C  0.78307387  0.27970841  0.65794187    -0.06400
C1151       C  0.81012285  0.26204018  0.63615121    -0.17600
C1152       C  0.82727552  0.27646619  0.59946622     0.10700
S1153       S  0.74378492  0.34059283  0.67195566    -0.32600
S1154       S  0.86097927  0.25112197  0.57386689    -0.32600
H1155       H  0.88074866  0.27910399  0.55634014     0.28800
H1156       H  0.74450788  0.36911747  0.64267827     0.28700
H1157       H  0.78530852  0.35376993  0.59423605     0.19300
H1158       H  0.81723208  0.23608916  0.64666202     0.19300
C1159       C  0.81468533  0.31222319  0.91916422    -0.06500
C1160       C  0.79134462  0.33251104  0.89365475    -0.17600
C1161       C  0.77520854  0.31957415  0.85545942     0.10700
C1162       C  0.78212324  0.28527507  0.84253732    -0.06400
C1163       C  0.80704191  0.26592633  0.86732225    -0.17600
C1164       C  0.82321856  0.27888741  0.90502957     0.10700
S1165       S  0.74607693  0.34803570  0.82515675    -0.32600
S1166       S  0.85352985  0.25092057  0.93461021    -0.32600
H1167       H  0.87560698  0.27741330  0.95085081     0.28800
H1168       H  0.75723205  0.33700954  0.78387146     0.28700
H1169       H  0.78516746  0.35840920  0.90401579     0.19300
H1170       H  0.81316585  0.23965635  0.85846193     0.19300
C1171       C  0.87108328  0.86194260  0.00067713     0.02800
C1172       C  0.85801765  0.84866244  0.04058896    -0.13400
C1173       C  0.83070832  0.82363752  0.04106220     0.00300
C1174       C  0.81648914  0.81195945  0.50126184    -0.11900
C1175       C  0.82902399  0.82558122  0.46115909     0.02800
C1176       C  0.85623737  0.85071394  0.46117294    -0.11300
H1177       H  0.86924013  0.85765310  0.07118799     0.08400
H1178       H  0.79569871  0.79229245  0.50142387     0.05900
H1179       H  0.86626844  0.86108459  0.43039909     0.05700
C1180       C  0.55672721  0.85997215  0.99616210     0.02800
C1181       C  0.56993920  0.84741989  0.03670393    -0.13400
C1182       C  0.59604009  0.82181361  0.03769623     0.00300
C1183       C  0.60793352  0.80827234  0.49874293    -0.11900
C1184       C  0.59586348  0.82096746  0.45843668     0.02800
C1185       C  0.56986637  0.84670861  0.45691333    -0.11300
H1186       H  0.56050916  0.85798827  0.06702791     0.08400
H1187       H  0.62786576  0.78818215  0.49969711     0.05900
H1188       H  0.56042611  0.85673810  0.42562893     0.05700
C1189       C  0.87457031  0.54102069  0.99340710     0.02800
C1190       C  0.86324136  0.55856554  0.03061051    -0.13400
C1191       C  0.83724038  0.58426177  0.02661981     0.00300
C1192       C  0.82252692  0.59172721  0.48536096    -0.11900
C1193       C  0.83432925  0.57488327  0.44811340     0.02800
C1194       C  0.85998926  0.54917818  0.45232766    -0.11300
H1195       H  0.87487703  0.55245071  0.06234362     0.08400
H1196       H  0.80210081  0.61114680  0.48185677     0.05900
H1197       H  0.86919682  0.53611654  0.42352051     0.05700
N1198       N  0.96499386  0.89776066  0.99942159    -0.37000
N1199       N  0.52089891  0.95073288  0.99265139    -0.57500
N1200       N  0.96692713  0.50431164  0.99645307    -0.37000
N1201       N  0.91113902  0.95136059  0.99932457    -0.57500
C1202       C  0.99336900  0.87751791  0.99201918     0.26600
C1203       C  0.93531087  0.87796114  0.99438550     0.26600
C1204       C  0.99591431  0.52415111  0.98739841     0.26600
C1205       C  0.93800115  0.52435614  0.99023476     0.26600
C1206       C  0.54170252  0.92253796  0.99700563     0.35200
C1207       C  0.54265803  0.97876303  0.99540482     0.35200
C1208       C  0.88956169  0.92349262  0.00517354     0.35200
C1209       C  0.89068684  0.97953118  0.00390261     0.35200
C1210       C  0.98157011  0.84422320  0.98303274    -0.22300
C1211       C  0.94503136  0.84451942  0.98443419    -0.22300
C1212       C  0.98523572  0.55745995  0.97623917    -0.22300
C1213       C  0.94878676  0.55752098  0.97782978    -0.22300
C1214       C  0.57700296  0.93273850  0.00142442    -0.23300
C1215       C  0.57760580  0.96829207  0.00041063    -0.23300
C1216       C  0.85514948  0.93405393  0.01312709    -0.23300
C1217       C  0.85587743  0.96952791  0.01235690    -0.23300
C1218       C  0.52965161  0.88767428  0.99512736    -0.18700
C1219       C  0.89975887  0.88867949  0.00046897    -0.18700
C1220       C  0.90218228  0.51413050  0.99712687    -0.18700
C1221       C  0.53178826  0.51369810  0.99146022    -0.18700
H1222       H  0.49758174  0.82185324  0.97646414     0.14300
H1223       H  0.92764716  0.82244951  0.97911866     0.14300
H1224       H  0.00182654  0.57968335  0.96815008     0.14300
H1225       H  0.93219049  0.57970398  0.97122729     0.14300
H1226       H  0.60000313  0.91630297  0.00467737     0.12500
H1227       H  0.60117029  0.98452965  0.00265451     0.12500
H1228       H  0.83176477  0.91793262  0.01818143     0.12500
H1229       H  0.83320053  0.98605016  0.01669353     0.12500
H1230       H  0.96602165  0.92252263  0.01170499     0.25800
H1231       H  0.96712605  0.97977847  0.01057628     0.25800
C1232       C  0.55951125  0.54130248  0.99267276     0.02800
C1233       C  0.57428188  0.55079103  0.03308764    -0.13400
C1234       C  0.59910469  0.57794341  0.03516138     0.00300
C1235       C  0.60960429  0.59513763  0.49641977    -0.11900
C1236       C  0.59440753  0.58660762  0.45583353     0.02800
C1237       C  0.56962987  0.55913148  0.45408704    -0.11300
H1238       H  0.56594712  0.53748883  0.06289782     0.08400
H1239       H  0.62985466  0.61526907  0.49815548     0.05900
H1240       H  0.55769570  0.55202632  0.42307766     0.05700
O1241       O  0.70241515  0.73234217  0.34512488    -0.80500
O1242       O  0.68184502  0.66368449  0.17926550    -0.80500
O1243       O  0.66047800  0.74031919  0.20761807    -0.80500
O1244       O  0.66670436  0.65439161  0.27627886    -0.80500
O1245       O  0.69857761  0.73037799  0.15688559    -0.80600
O1246       O  0.70071262  0.66345307  0.33490353    -0.80500
O1247       O  0.69300062  0.61332913  0.21168484    -0.80500
O1248       O  0.66184210  0.74205095  0.29448520    -0.80500
C1249       C  0.67158624  0.74285329  0.33376920     1.09200
C1250       C  0.67682757  0.63044932  0.18215500     1.09100
C1251       C  0.66901496  0.74235379  0.16815980     1.09200
C1252       C  0.67159538  0.65310036  0.31748116     1.09100
O1253       O  0.77142276  0.66717091  0.29349848    -0.80500
O1254       O  0.76690199  0.72780103  0.19712015    -0.80600
O1255       O  0.73087598  0.77658718  0.29502323    -0.80500
O1256       O  0.75479502  0.64857483  0.19924044    -0.80500
O1257       O  0.74367852  0.67954395  0.13939570    -0.80500
O1258       O  0.77053175  0.73621058  0.29971475    -0.80500
O1259       O  0.73459804  0.62544199  0.28306991    -0.80500
O1260       O  0.73190059  0.77234590  0.20458229    -0.80500
Co1261     Co  0.73618941  0.69981890  0.31498124     1.51500
Co1262     Co  0.72597294  0.69556489  0.19246019     1.51700
Co1263     Co  0.69691533  0.75466170  0.25032201     1.51600
Co1264     Co  0.70885627  0.65477178  0.23809738     1.51500
O1265       O  0.71550259  0.70512229  0.25463593    -1.42400
C1266       C  0.76352132  0.63582841  0.29955484     1.09100
C1267       C  0.76045984  0.75956113  0.18992292     1.09200
C1268       C  0.76112965  0.76628520  0.30870330     1.09100
C1269       C  0.76089601  0.65559476  0.15818556     1.09100
C1270       C  0.61401000  0.58915914  0.07748604    -0.06500
C1271       C  0.63640944  0.56692378  0.10132192    -0.17600
C1272       C  0.65518787  0.57852314  0.13814736     0.10700
C1273       C  0.65224535  0.61353412  0.15072321    -0.06400
C1274       C  0.62781556  0.63475854  0.12839423    -0.17600
C1275       C  0.60853006  0.62292949  0.09231530     0.10700
S1276       S  0.68406164  0.54800969  0.16526897    -0.32600
S1277       S  0.57684954  0.65114384  0.06555855    -0.32600
H1278       H  0.58532100  0.68132012  0.58861726     0.28800
H1279       H  0.66861337  0.55268411  0.20646102     0.28700
H1280       H  0.64025747  0.54075937  0.09023213     0.19300
H1281       H  0.62454201  0.66115912  0.13842761     0.19300
C1282       C  0.60631500  0.60536861  0.41547400    -0.06500
C1283       C  0.61658396  0.58622682  0.37907406    -0.17600
C1284       C  0.63476152  0.60215048  0.34395559     0.10700
C1285       C  0.64466753  0.63736308  0.34657668    -0.06400
C1286       C  0.63275017  0.65675742  0.38165345    -0.17600
C1287       C  0.61184896  0.64167608  0.41446245     0.10700
S1288       S  0.64720357  0.57691896  0.29752704    -0.32600
S1289       S  0.59245912  0.67035551  0.45326104    -0.32600
H1290       H  0.56351177  0.64868282  0.96321363     0.28800
H1291       H  0.63650126  0.54448232  0.31481322     0.28700
H1292       H  0.61181734  0.55855217  0.37905241     0.19300
H1293       H  0.63996301  0.68388786  0.38371979     0.19300
C1294       C  0.78792807  0.63743264  0.13218378    -0.06500
C1295       C  0.80386881  0.65625209  0.09757458    -0.17600
C1296       C  0.82260149  0.63985905  0.06476885     0.10700
C1297       C  0.82485444  0.60336177  0.06534587    -0.06400
C1298       C  0.81164783  0.58469522  0.10180791    -0.17600
C1299       C  0.79381152  0.60138244  0.13555255     0.10700
S1300       S  0.84212593  0.66707321  0.02248154    -0.32600
S1301       S  0.77663756  0.57489563  0.17974722    -0.32600
H1302       H  0.79149803  0.59589902  0.21244875     0.28800
H1303       H  0.87024358  0.64473049  0.01337362     0.28700
H1304       H  0.80062590  0.68406126  0.09511936     0.19300
H1305       H  0.81374573  0.55674769  0.10303267     0.19300
C1306       C  0.82089879  0.58599978  0.40471445    -0.06500
C1307       C  0.79119629  0.56902633  0.38692183    -0.17600
C1308       C  0.77302268  0.58293303  0.35032566     0.10700
C1309       C  0.78501873  0.61471593  0.33117059    -0.06400
C1310       C  0.81652710  0.62993751  0.34749083    -0.17600
C1311       C  0.83435741  0.61609916  0.38384688     0.10700
S1312       S  0.73391751  0.56047368  0.33054787    -0.32600
S1313       S  0.87262162  0.63957888  0.40411523    -0.32600
H1314       H  0.89076182  0.61033089  0.41996578     0.28800
H1315       H  0.73294542  0.53404537  0.36282676     0.28700
H1316       H  0.78131070  0.54574453  0.40317879     0.19300
H1317       H  0.82661058  0.65394976  0.33320779     0.19300
C1318       C  0.61273541  0.80863060  0.07837957    -0.06500
C1319       C  0.59322977  0.78602516  0.10570027    -0.17600
C1320       C  0.61049144  0.76398468  0.13583822     0.10700
C1321       C  0.64815163  0.76388373  0.13746283    -0.06400
C1322       C  0.66725130  0.78796060  0.11183179    -0.17600
C1323       C  0.64997738  0.81099600  0.08364410     0.10700
S1324       S  0.58282874  0.73598015  0.16943578    -0.32600
S1325       S  0.67706509  0.84240457  0.05445475    -0.32600
H1326       H  0.64959655  0.86599332  0.04580751     0.28800
H1327       H  0.60749119  0.70944404  0.17568888     0.28700
H1328       H  0.56463256  0.78406045  0.10170764     0.19300
H1329       H  0.69598342  0.78941239  0.11448014     0.19300
C1330       C  0.65000355  0.76263278  0.36427401    -0.06500
C1331       C  0.66798622  0.78846314  0.38757010    -0.17600
C1332       C  0.64975503  0.81132835  0.41363409     0.10700
C1333       C  0.61277411  0.80714260  0.41924481    -0.06400
C1334       C  0.59429607  0.78241770  0.39463806    -0.17600
C1335       C  0.61230728  0.76060576  0.36629699     0.10700
S1336       S  0.67532955  0.84509205  0.43958146    -0.32000
S1337       S  0.58512294  0.73072402  0.33531641    -0.32600
H1338       H  0.61161984  0.70835145  0.32169763     0.28800
H1339       H  0.64666155  0.86736957  0.44615787     0.28700
H1340       H  0.69651765  0.79169396  0.38428318     0.19300
H1341       H  0.56591047  0.77899908  0.39909003     0.19300
C1342       C  0.81716343  0.80933788  0.08318385    -0.06500
C1343       C  0.79212240  0.82820944  0.10624592    -0.17600
C1344       C  0.77510621  0.81408640  0.14352161     0.10700
C1345       C  0.78297282  0.77971904  0.15782820    -0.06400
C1346       C  0.81005159  0.76206996  0.13606730    -0.17600
C1347       C  0.82722093  0.77649782  0.09939470     0.10700
S1348       S  0.74336324  0.84048397  0.17147560    -0.32600
S1349       S  0.86081596  0.75107926  0.07369985    -0.32600
H1350       H  0.88063249  0.77901498  0.05613860     0.28800
H1351       H  0.74379785  0.86881096  0.14188237     0.28700
H1352       H  0.78523829  0.85378978  0.09411571     0.19300
H1353       H  0.81715793  0.73611706  0.14657348     0.19300
C1354       C  0.81490400  0.81219427  0.41921781    -0.06500
C1355       C  0.79144942  0.83243271  0.39381266    -0.17600
C1356       C  0.77528540  0.81949094  0.35563688     0.10700
C1357       C  0.78225008  0.78521823  0.34265041    -0.06400
C1358       C  0.80730889  0.76593131  0.36730862    -0.17600
C1359       C  0.82355817  0.77892543  0.40496252     0.10700
S1360       S  0.74604994  0.84791483  0.32544032    -0.32600
S1361       S  0.85415348  0.75111525  0.43431894    -0.32600
H1362       H  0.87620607  0.77774198  0.45026726     0.28800
H1363       H  0.75722658  0.83698964  0.28411736     0.28700
H1364       H  0.78520565  0.85829694  0.40424118     0.19300
H1365       H  0.81350828  0.73969551  0.35837640     0.19300
C1366       C  0.87108535  0.86197270  0.50084130     0.02800
C1367       C  0.85796599  0.84870028  0.54072151    -0.13400
C1368       C  0.83073219  0.82360520  0.54114190     0.00300
C1369       C  0.81634964  0.81206389  0.00121682    -0.11900
C1370       C  0.82885719  0.82565582  0.96109276     0.02800
C1371       C  0.85613403  0.85072595  0.96104286    -0.11300
H1372       H  0.86910877  0.85773401  0.57134333     0.08400
H1373       H  0.79550626  0.79244930  0.00142120     0.05900
H1374       H  0.86613379  0.86107937  0.93024458     0.05700
C1375       C  0.55669370  0.85997084  0.49624402     0.02800
C1376       C  0.56984095  0.84737786  0.53679539    -0.13400
C1377       C  0.59595164  0.82178561  0.53780682     0.00300
C1378       C  0.60794687  0.80825456  0.99862254    -0.11900
C1379       C  0.59581423  0.82091237  0.95832805     0.02800
C1380       C  0.56982588  0.84665943  0.95682320    -0.11300
H1381       H  0.56036494  0.85791520  0.56711538     0.08400
H1382       H  0.62786863  0.78815432  0.99955425     0.05900
H1383       H  0.56033756  0.85665626  0.92554435     0.05700
C1384       C  0.87458051  0.54102185  0.49357970     0.02800
C1385       C  0.86328132  0.55856461  0.53079278    -0.13400
C1386       C  0.83733025  0.58430223  0.52680819     0.00300
C1387       C  0.82242856  0.59164961  0.98515907    -0.11900
C1388       C  0.83425812  0.57480785  0.94791402     0.02800
C1389       C  0.85995513  0.54913534  0.95215218    -0.11300
H1390       H  0.87490413  0.55242020  0.56252464     0.08400
H1391       H  0.80198400  0.61104841  0.98163834     0.05900
H1392       H  0.86918731  0.53607886  0.92335357     0.05700
N1393       N  0.96498387  0.89776853  0.49970685    -0.37000
N1394       N  0.52087435  0.95072276  0.49275943    -0.57500
N1395       N  0.96690611  0.50428710  0.49647146    -0.37000
N1396       N  0.91113401  0.95137014  0.49968544    -0.57500
C1397       C  0.99333743  0.87755360  0.49206768     0.26600
C1398       C  0.93528904  0.87801660  0.49449328     0.26600
C1399       C  0.99588451  0.52413070  0.48741121     0.26600
C1400       C  0.93798168  0.52434439  0.49034215     0.26600
C1401       C  0.54168472  0.92253883  0.49715045     0.35200
C1402       C  0.54262917  0.97875648  0.49546140     0.35200
C1403       C  0.88955211  0.92350810  0.50551015     0.35200
C1404       C  0.89066792  0.97954236  0.50414401     0.35200
C1405       C  0.98151667  0.84433092  0.48274951    -0.22300
C1406       C  0.94498291  0.84463884  0.48419038    -0.22300
C1407       C  0.98520311  0.55745158  0.47631716    -0.22300
C1408       C  0.94875962  0.55751904  0.47796920    -0.22300
C1409       C  0.57698424  0.93274306  0.50155161    -0.23300
C1410       C  0.57758106  0.96829654  0.50047274    -0.23300
C1411       C  0.85512221  0.93407039  0.51336063    -0.23300
C1412       C  0.85584306  0.96954510  0.51252214    -0.23300
C1413       C  0.52963512  0.88768696  0.49520730    -0.18700
C1414       C  0.89974831  0.88871048  0.50070676    -0.18700
C1415       C  0.90217207  0.51412388  0.49728453    -0.18700
C1416       C  0.53174472  0.51368350  0.49145314    -0.18700
H1417       H  0.49753724  0.82205427  0.47570515     0.14300
H1418       H  0.92758530  0.82261762  0.47864831     0.14300
H1419       H  0.00179010  0.57968337  0.46825340     0.14300
H1420       H  0.93216369  0.57971613  0.47144437     0.14300
H1421       H  0.59998733  0.91631046  0.50479688     0.12500
H1422       H  0.60114362  0.98454133  0.50266839     0.12500
H1423       H  0.83172310  0.91795064  0.51832027     0.12500
H1424       H  0.83314769  0.98606903  0.51672003     0.12500
H1425       H  0.96603572  0.92243701  0.51229647     0.25800
H1426       H  0.96711542  0.97973137  0.51053653     0.25800
C1427       C  0.55944935  0.54129311  0.49261640     0.02800
C1428       C  0.57420241  0.55084372  0.53301349    -0.13400
C1429       C  0.59897812  0.57803765  0.53503892     0.00300
C1430       C  0.60976869  0.59506375  0.99657023    -0.11900
C1431       C  0.59455758  0.58660576  0.95596647     0.02800
C1432       C  0.56972907  0.55916903  0.95417332    -0.11300
H1433       H  0.56589026  0.53755740  0.56284454     0.08400
H1434       H  0.63005263  0.61516066  0.99834455     0.05900
H1435       H  0.55779152  0.55211138  0.92314810     0.05700
O1436       O  0.70242055  0.73234771  0.84504531    -0.80500
O1437       O  0.68186649  0.66377798  0.67911271    -0.80500
O1438       O  0.66050729  0.74026781  0.70756714    -0.80500
O1439       O  0.66666404  0.65446160  0.77628821    -0.80500
O1440       O  0.69864707  0.73046381  0.65684411    -0.80600
O1441       O  0.70076982  0.66347213  0.83484513    -0.80500
O1442       O  0.69286376  0.61340994  0.71158925    -0.80500
O1443       O  0.66182867  0.74204388  0.79441371    -0.80500
C1444       C  0.67157818  0.74283268  0.83369806     1.09200
C1445       C  0.67677780  0.63055318  0.68200303     1.09100
C1446       C  0.66905536  0.74236928  0.66812303     1.09200
C1447       C  0.67161491  0.65315907  0.81748380     1.09100
O1448       O  0.77142836  0.66718889  0.79335042    -0.80500
O1449       O  0.76695355  0.72780657  0.69719648    -0.80600
O1450       O  0.73081220  0.77661936  0.79495187    -0.80500
O1451       O  0.75470733  0.64858980  0.69918981    -0.80500
O1452       O  0.74374478  0.67963574  0.63935622    -0.80500
O1453       O  0.77050673  0.73627471  0.79956540    -0.80500
O1454       O  0.73456667  0.62546777  0.78296077    -0.80500
O1455       O  0.73193173  0.77234742  0.70456643    -0.80500
Co1456     Co  0.73620981  0.69984628  0.81488319     1.51500
Co1457     Co  0.72600577  0.69561676  0.69241459     1.51700
Co1458     Co  0.69690112  0.75466536  0.75026205     1.51600
Co1459     Co  0.70877853  0.65481650  0.73804195     1.51500
O1460       O  0.71548897  0.70514116  0.75457789    -1.42400
C1461       C  0.76353435  0.63583327  0.79936232     1.09100
C1462       C  0.76052919  0.75956725  0.69000226     1.09200
C1463       C  0.76107557  0.76633547  0.80859609     1.09100
C1464       C  0.76089117  0.65564803  0.65816856     1.09100
C1465       C  0.61390922  0.58928677  0.57733418    -0.06500
C1466       C  0.63629128  0.56704767  0.60118398    -0.17600
C1467       C  0.65508933  0.57865027  0.63798805     0.10700
C1468       C  0.65219930  0.61367439  0.65052423    -0.06400
C1469       C  0.62780359  0.63492076  0.62815698    -0.17600
C1470       C  0.60843499  0.62306405  0.59214636     0.10700
S1471       S  0.68395762  0.54812709  0.66509713    -0.32600
S1472       S  0.57671415  0.65123659  0.56535411    -0.32600
H1473       H  0.58771256  0.68181827  0.08616633     0.28800
H1474       H  0.66849337  0.55277660  0.70628640     0.28700
H1475       H  0.64010929  0.54087119  0.59012066     0.19300
H1476       H  0.62466384  0.66136149  0.63807786     0.19300
C1477       C  0.60649663  0.60539340  0.91563212    -0.06500
C1478       C  0.61673677  0.58626430  0.87920726    -0.17600
C1479       C  0.63490008  0.60219045  0.84408207     0.10700
C1480       C  0.64473263  0.63742056  0.84663920    -0.06400
C1481       C  0.63288044  0.65679979  0.88176462    -0.17600
C1482       C  0.61206601  0.64170087  0.91464979     0.10700
S1483       S  0.64742191  0.57692988  0.79771980    -0.32600
S1484       S  0.59284201  0.67036939  0.95358731    -0.32600
H1485       H  0.56317752  0.64860160  0.46287658     0.28800
H1486       H  0.63841758  0.54433708  0.81598197     0.28700
H1487       H  0.61193935  0.55859429  0.87915084     0.19300
H1488       H  0.64009508  0.68393039  0.88382235     0.19300
C1489       C  0.78794835  0.63747433  0.63224547    -0.06500
C1490       C  0.80399128  0.65629642  0.59771345    -0.17600
C1491       C  0.82276855  0.63989527  0.56496103     0.10700
C1492       C  0.82496328  0.60339597  0.56552667    -0.06400
C1493       C  0.81166330  0.58472453  0.60192738    -0.17600
C1494       C  0.79377708  0.60141627  0.63561759     0.10700
S1495       S  0.84239789  0.66709526  0.52273052    -0.32600
S1496       S  0.77645613  0.57492593  0.67972177    -0.32600
H1497       H  0.79131262  0.59586018  0.71249698     0.28800
H1498       H  0.87047245  0.64469834  0.51363362     0.28700
H1499       H  0.80078645  0.68411044  0.59526634     0.19300
H1500       H  0.81371335  0.55677254  0.60313001     0.19300
C1501       C  0.82090212  0.58595804  0.90447887    -0.06500
C1502       C  0.79137333  0.56885516  0.88643003    -0.17600
C1503       C  0.77326159  0.58274903  0.84976759     0.10700
C1504       C  0.78510161  0.61467866  0.83086829    -0.06400
C1505       C  0.81649863  0.62998909  0.84736896    -0.17600
C1506       C  0.83428587  0.61615973  0.88376110     0.10700
S1507       S  0.73444995  0.56006427  0.82952897    -0.32600
S1508       S  0.87236212  0.63982164  0.90424579    -0.32600
H1509       H  0.89039010  0.61079023  0.92093290     0.28800
H1510       H  0.73403822  0.53303252  0.86101160     0.28700
H1511       H  0.78155762  0.54548235  0.90253886     0.19300
H1512       H  0.82650330  0.65408386  0.83322858     0.19300
C1513       C  0.61262763  0.80861755  0.57850153    -0.06500
C1514       C  0.59317835  0.78587913  0.60570717    -0.17600
C1515       C  0.61049246  0.76385763  0.63581491     0.10700
C1516       C  0.64815299  0.76389549  0.63748609    -0.06400
C1517       C  0.66718811  0.78811628  0.61199871    -0.17600
C1518       C  0.64984939  0.81114205  0.58386263     0.10700
S1519       S  0.58289146  0.73573246  0.66934094    -0.32600
S1520       S  0.67682570  0.84274387  0.55484964    -0.32600
H1521       H  0.64925162  0.86622415  0.54624442     0.28800
H1522       H  0.60766179  0.70931996  0.67577312     0.28700
H1523       H  0.56459359  0.78380742  0.60165215     0.19300
H1524       H  0.69591145  0.78968694  0.61472405     0.19300
C1525       C  0.64998145  0.76258400  0.86420718    -0.06500
C1526       C  0.66791719  0.78851105  0.88738562    -0.17600
C1527       C  0.64964740  0.81137444  0.91340998     0.10700
C1528       C  0.61269173  0.80707643  0.91912657    -0.06400
C1529       C  0.59425705  0.78224024  0.89465072    -0.17600
C1530       C  0.61229458  0.76044534  0.86631592     0.10700
S1531       S  0.67513517  0.84528831  0.93917278    -0.32000
S1532       S  0.58515531  0.73045554  0.83544069    -0.32600
H1533       H  0.61170948  0.70822307  0.82163354     0.28800
H1534       H  0.64639791  0.86749732  0.94567324     0.28700
H1535       H  0.69643365  0.79182427  0.88402160     0.19300
H1536       H  0.56589042  0.77873652  0.89918716     0.19300
C1537       C  0.81718916  0.80930403  0.58326266    -0.06500
C1538       C  0.79220792  0.82820345  0.60639054    -0.17600
C1539       C  0.77530351  0.81412350  0.64376766     0.10700
C1540       C  0.78309210  0.77971971  0.65797059    -0.06400
C1541       C  0.81014883  0.76205898  0.63618447    -0.17600
C1542       C  0.82731161  0.77649632  0.59951421     0.10700
S1543       S  0.74378794  0.84059735  0.67199097    -0.32600
S1544       S  0.86102482  0.75116270  0.57391611    -0.32600
H1545       H  0.88079279  0.77915206  0.55640577     0.28800
H1546       H  0.74600103  0.86990126  0.64409158     0.28700
H1547       H  0.78527664  0.85376314  0.59423272     0.19300
H1548       H  0.81725772  0.73610611  0.64668787     0.19300
C1549       C  0.81470406  0.81222905  0.91919567    -0.06500
C1550       C  0.79137182  0.83251103  0.89366726    -0.17600
C1551       C  0.77523646  0.81955842  0.85548026     0.10700
C1552       C  0.78214087  0.78524940  0.84258863    -0.06400
C1553       C  0.80704724  0.76590346  0.86739666    -0.17600
C1554       C  0.82322630  0.77888206  0.90509271     0.10700
S1555       S  0.74611935  0.84801358  0.82514586    -0.32600
S1556       S  0.85352884  0.75092707  0.93470502    -0.32600
H1557       H  0.87563990  0.77742913  0.95085617     0.28800
H1558       H  0.75728778  0.83696893  0.78387439     0.28700
H1559       H  0.78520105  0.85841658  0.90400611     0.19300
H1560       H  0.81316109  0.73962541  0.85856157     0.19300
loop_ 
_geom_bond_atom_site_label_1 
_geom_bond_atom_site_label_2 
_geom_bond_distance 
_geom_bond_site_symmetry_2 
_ccdc_geom_bond_type 
C1            C2   1.404       .  A
C1          C201   1.404   1_554  A
C1           C49   1.485       .  S
C2            C3   1.402       .  A
C2            H7   1.084       .  S
C3          C199   1.406       .  A
C3          C172   1.483       .  S
C4            C5   1.407       .  A
C4          C198   1.406       .  A
C4            H8   1.084       .  S
C5            C6   1.403       .  A
C5          C184   1.483       .  S
C6          C196   1.404       .  A
C6            H9   1.084       .  S
C10          C11   1.410   1_556  A
C10         C210   1.411       .  A
C10          C48   1.487       .  S
C11          C12   1.402       .  A
C11          H16   1.083       .  S
C12         C208   1.392   1_554  A
C12         C148   1.473       .  S
C13          C14   1.392       .  A
C13         C207   1.392       .  A
C13          H17   1.086       .  S
C14          C15   1.404       .  A
C14         C163   1.473       .  S
C15         C205   1.411       .  A
C15          H18   1.083       .  S
C19          C20   1.406   1_556  A
C19         C219   1.402       .  A
C19          C50   1.481       .  S
C20          C21   1.405       .  A
C20          H25   1.084       .  S
C21         C217   1.405   1_554  A
C21         C127   1.487       .  S
C22          C23   1.399       .  A
C22         C216   1.405       .  A
C22          H26   1.084       .  S
C23          C24   1.397       .  A
C23         C136   1.473       .  S
C24         C214   1.402       .  A
C24          H27   1.084       .  S
N28          C33   1.355       .  A
N28          C32   1.354       .  A
N28          H60   1.034   1_556  S
N29          C36   1.353       .  A
N29          C37   1.353       .  A
N30          C35   1.354       .  A
N30          C34   1.353       .  A
N30         H451   1.035   1_546  S
N31          C38   1.351   1_556  A
N31          C39   1.351   1_556  A
C32          C40   1.387       .  A
C32         C828   1.419       .  A
C33          C49   1.420   1_556  A
C33          C41   1.387       .  A
C34          C42   1.389       .  A
C34         C831   1.417       .  A
C35          C50   1.416       .  A
C35          C43   1.386       .  A
C36          C48   1.418       .  A
C36          C44   1.387   1_556  A
C37          C45   1.387   1_556  A
C37         C441   1.418       .  A
C38          C46   1.387       .  A
C38          C49   1.414       .  A
C39          C47   1.386       .  A
C39         C440   1.412   1_554  A
C40          C41   1.376       .  A
C40         H832   1.082       .  S
C41          H53   1.082       .  S
C42          C43   1.373       .  A
C42          H54   1.082       .  S
C43          H55   1.082       .  S
C44          C45   1.374       .  A
C44          H56   1.083       .  S
C45          H57   1.082       .  S
C46          C47   1.370       .  A
C46          H58   1.082       .  S
C47          H59   1.082       .  S
C48         C812   1.419   1_455  A
C50         C429   1.412   1_546  A
C51         C814   1.417   1_455  A
C51         C427   1.418   1_545  A
C51          C62   1.483       .  S
H52         C820   1.082       .  S
H61         N420   1.035   1_554  S
C62          C63   1.403   1_556  A
C62         C262   1.406       .  A
C63          C64   1.398       .  A
C63          H68   1.084       .  S
C64         C260   1.400   1_554  A
C64         C100   1.475       .  S
C65          C66   1.404       .  A
C65         C259   1.400       .  A
C65          H69   1.084       .  S
C66          C67   1.406       .  A
C66         C112   1.488       .  S
C67         C257   1.406       .  A
C67          H70   1.083       .  S
O71          C79   1.277       .  A
O71         Co91   2.036       .  S
O72          C80   1.297       .  A
O72         Co92   2.096       .  S
O73          C81   1.251       .  A
O73         Co93   1.967       .  S
O74          C82   1.271       .  A
O74         Co94   1.976       .  S
O75          C81   1.263       .  A
O75         Co92   2.004       .  S
O76          C82   1.277       .  A
O76         Co91   2.016       .  S
O77          C80   1.265       .  A
O77         Co94   1.894       .  S
O78          C79   1.253       .  A
O78         Co93   1.946       .  S
C79         C160   1.472       .  S
C80         C103   1.483       .  S
C81         C151   1.470       .  S
C82         C115   1.472       .  S
O83          C96   1.254       .  A
O83         Co91   1.966       .  S
O84          C97   1.269       .  A
O84         Co92   1.975       .  S
O85          C98   1.275       .  A
O85         Co93   2.050       .  S
O86          C99   1.300       .  A
O86         Co94   2.123       .  S
O87          C99   1.263       .  A
O87         Co92   1.876       .  S
O88          C98   1.255       .  A
O88         Co91   1.951       .  S
O89          C96   1.260       .  A
O89         Co94   2.014       .  S
O90          C97   1.276       .  A
O90         Co93   2.031       .  S
Co91         O95   2.003       .  S
Co92         O95   1.985       .  S
Co93         O95   2.048       .  S
Co94         O95   2.031       .  S
C96         C139   1.492       .  S
C97         C175   1.501       .  S
C98         C187   1.498       .  S
C99         C124   1.487       .  S
C100        C101   1.401       .  A
C100        C105   1.407       .  A
C101        C102   1.401       .  A
C101        H110   1.084       .  S
C102        C103   1.419       .  A
C102        S106   1.799       .  S
C103        C104   1.404       .  A
C104        C105   1.396       .  A
C104        H111   1.079       .  S
C105        S107   1.806       .  S
S106        H109   1.406       .  S
S107        H303   1.407       .  S
H108        S302   1.407       .  S
C112        C113   1.406       .  A
C112        C117   1.416       .  A
C113        C114   1.405       .  A
C113        H122   1.082       .  S
C114        C115   1.410       .  A
C114        S118   1.804       .  S
C115        C116   1.399       .  A
C116        C117   1.394       .  A
C116        H123   1.083       .  S
C117        S119   1.802       .  S
S118        H121   1.407       .  S
S119        H315   1.407       .  S
H120        S314   1.407       .  S
C124        C125   1.406       .  A
C124        C129   1.415       .  A
C125        C126   1.396       .  A
C125        H134   1.084       .  S
C126        C127   1.414       .  A
C126        S130   1.806       .  S
C127        C128   1.406       .  A
C128        C129   1.406       .  A
C128        H135   1.084       .  S
C129        S131   1.798       .  S
S130        H133   1.407       .  S
S131        H132   1.407       .  S
C136        C137   1.400       .  A
C136        C141   1.407       .  A
C137        C138   1.407       .  A
C137        H146   1.083       .  S
C138        C139   1.421       .  A
C138        S142   1.805       .  S
C139        C140   1.409       .  A
C140        C141   1.394       .  A
C140        H147   1.084       .  S
C141        S143   1.804       .  S
S142        H145   1.407       .  S
S143        H144   1.404       .  S
C148        C149   1.402       .  A
C148        C153   1.411       .  A
C149        C150   1.403       .  A
C149        H158   1.084       .  S
C150        C151   1.418       .  A
C150        S154   1.805       .  S
C151        C152   1.400       .  A
C152        C153   1.390       .  A
C152        H159   1.084       .  S
C153        S155   1.803       .  S
S154        H157   1.401       .  S
S155        H156   1.407       .  S
C160        C161   1.401       .  A
C160        C165   1.421       .  A
C161        C162   1.391       .  A
C161        H170   1.085       .  S
C162        C163   1.410       .  A
C162        S166   1.803       .  S
C163        C164   1.401       .  A
C164        C165   1.404       .  A
C164        H171   1.084       .  S
C165        S167   1.809       .  S
S166        H169   1.406       .  S
S167        H168   1.399       .  S
C172        C173   1.401       .  A
C172        C177   1.409       .  A
C173        C174   1.409       .  A
C173        H182   1.083       .  S
C174        C175   1.424       .  A
C174        S178   1.810       .  S
C175        C176   1.411       .  A
C176        C177   1.401       .  A
C176        H183   1.083       .  S
C177        S179   1.804       .  S
S178        H181   1.407       .  S
S179        H180   1.405       .  S
C184        C185   1.406       .  A
C184        C189   1.408       .  A
C185        C186   1.408       .  A
C185        H194   1.084       .  S
C186        C187   1.418       .  A
C186        S190   1.801       .  S
C187        C188   1.413       .  A
C188        C189   1.397       .  A
C188        H195   1.083       .  S
C189        S191   1.806       .  S
S190        H193   1.408       .  S
S191        H192   1.405       .  S
C196        C197   1.404       .  A
C196        C244   1.484       .  S
C197        C198   1.402       .  A
C197        H202   1.084       .  S
C198        C367   1.483       .  S
C199        C200   1.407   1_554  A
C199        H203   1.084       .  S
C200        C201   1.403       .  A
C200        C379   1.482       .  S
C201        H204   1.084       .  S
C205        C206   1.410       .  A
C205        C243   1.487       .  S
C206        C207   1.402       .  A
C206        H211   1.083       .  S
C207        C343   1.473       .  S
C208        C209   1.391       .  A
C208        H212   1.086       .  S
C209        C210   1.403       .  A
C209        C358   1.472       .  S
C210        H213   1.083       .  S
C214        C215   1.406       .  A
C214        C245   1.480       .  S
C215        C216   1.405       .  A
C215        H220   1.084       .  S
C216        C322   1.487       .  S
C217        C218   1.400       .  A
C217        H221   1.084       .  S
C218        C219   1.397       .  A
C218        C331   1.474       .  S
C219        H222   1.084       .  S
N223        C228   1.355       .  A
N223        C227   1.354       .  A
N223        H255   1.035       .  S
N224        C231   1.353       .  A
N224        C232   1.353       .  A
N225        C230   1.354       .  A
N225        C229   1.353       .  A
N225        H646   1.035   1_545  S
N226        C233   1.351       .  A
N226        C234   1.351       .  A
C227        C235   1.387       .  A
C227       C1023   1.419       .  A
C228        C244   1.420       .  A
C228        C236   1.387       .  A
C229        C237   1.389       .  A
C229       C1026   1.417       .  A
C230        C245   1.416       .  A
C230        C238   1.386       .  A
C231        C243   1.418       .  A
C231        C239   1.387       .  A
C232        C636   1.418       .  A
C232        C240   1.387       .  A
C233        C241   1.387       .  A
C233        C244   1.413       .  A
C234        C242   1.386       .  A
C234        C635   1.412       .  A
C235        C236   1.376       .  A
C235       H1027   1.082       .  S
C236        H248   1.082       .  S
C237        C238   1.373       .  A
C237        H249   1.082       .  S
C238        H250   1.082       .  S
C239        C240   1.374       .  A
C239        H251   1.083       .  S
C240        H252   1.082       .  S
C241        C242   1.370       .  A
C241        H253   1.082       .  S
C242        H254   1.082       .  S
C243       C1007   1.419   1_455  A
C245        C624   1.412   1_545  A
C246       C1009   1.417   1_455  A
C246        C622   1.418   1_545  A
C246        C257   1.483       .  S
H247       C1015   1.082       .  S
H256        N615   1.035       .  S
C257        C258   1.403       .  A
C258        C259   1.398       .  A
C258        H263   1.084       .  S
C259        C295   1.475       .  S
C260        C261   1.404       .  A
C260        H264   1.084       .  S
C261        C262   1.406       .  A
C261        C307   1.488       .  S
C262        H265   1.083       .  S
O266        C274   1.277       .  A
O266       Co286   2.036       .  S
O267        C275   1.297       .  A
O267       Co287   2.096       .  S
O268        C276   1.251       .  A
O268       Co288   1.966       .  S
O269        C277   1.271       .  A
O269       Co289   1.976       .  S
O270        C276   1.263       .  A
O270       Co287   2.004       .  S
O271        C277   1.277       .  A
O271       Co286   2.015       .  S
O272        C275   1.265       .  A
O272       Co289   1.894       .  S
O273        C274   1.253       .  A
O273       Co288   1.946       .  S
C274        C355   1.472       .  S
C275        C298   1.483       .  S
C276        C346   1.470       .  S
C277        C310   1.472       .  S
O278        C291   1.254       .  A
O278       Co286   1.967       .  S
O279        C292   1.269       .  A
O279       Co287   1.974       .  S
O280        C293   1.275       .  A
O280       Co288   2.049       .  S
O281        C294   1.300       .  A
O281       Co289   2.123       .  S
O282        C294   1.263       .  A
O282       Co287   1.876       .  S
O283        C293   1.255       .  A
O283       Co286   1.951       .  S
O284        C291   1.260       .  A
O284       Co289   2.014       .  S
O285        C292   1.276       .  A
O285       Co288   2.031       .  S
Co286       O290   2.002       .  S
Co287       O290   1.985       .  S
Co288       O290   2.047       .  S
Co289       O290   2.031       .  S
C291        C334   1.492       .  S
C292        C370   1.501       .  S
C293        C382   1.497       .  S
C294        C319   1.486       .  S
C295        C296   1.401       .  A
C295        C300   1.407       .  A
C296        C297   1.401       .  A
C296        H305   1.084       .  S
C297        C298   1.419       .  A
C297        S301   1.799       .  S
C298        C299   1.404       .  A
C299        C300   1.396       .  A
C299        H306   1.079       .  S
C300        S302   1.806       .  S
S301        H304   1.406       .  S
C307        C308   1.406       .  A
C307        C312   1.416       .  A
C308        C309   1.405       .  A
C308        H317   1.082       .  S
C309        C310   1.410       .  A
C309        S313   1.804       .  S
C310        C311   1.399       .  A
C311        C312   1.394       .  A
C311        H318   1.083       .  S
C312        S314   1.802       .  S
S313        H316   1.407       .  S
C319        C320   1.406       .  A
C319        C324   1.415       .  A
C320        C321   1.396       .  A
C320        H329   1.084       .  S
C321        C322   1.414       .  A
C321        S325   1.806       .  S
C322        C323   1.406       .  A
C323        C324   1.405       .  A
C323        H330   1.084       .  S
C324        S326   1.798       .  S
S325        H328   1.407       .  S
S326        H327   1.407       .  S
C331        C332   1.400       .  A
C331        C336   1.407       .  A
C332        C333   1.407       .  A
C332        H341   1.083       .  S
C333        C334   1.421       .  A
C333        S337   1.805       .  S
C334        C335   1.409       .  A
C335        C336   1.394       .  A
C335        H342   1.084       .  S
C336        S338   1.804       .  S
S337        H340   1.407       .  S
S338        H339   1.404       .  S
C343        C344   1.402       .  A
C343        C348   1.411       .  A
C344        C345   1.403       .  A
C344        H353   1.084       .  S
C345        C346   1.418       .  A
C345        S349   1.805       .  S
C346        C347   1.400       .  A
C347        C348   1.390       .  A
C347        H354   1.084       .  S
C348        S350   1.803       .  S
S349        H352   1.401       .  S
S350        H351   1.407       .  S
C355        C356   1.401       .  A
C355        C360   1.421       .  A
C356        C357   1.391       .  A
C356        H365   1.085       .  S
C357        C358   1.410       .  A
C357        S361   1.803       .  S
C358        C359   1.401       .  A
C359        C360   1.404       .  A
C359        H366   1.084       .  S
C360        S362   1.809       .  S
S361        H364   1.406       .  S
S362        H363   1.399       .  S
C367        C368   1.401       .  A
C367        C372   1.409       .  A
C368        C369   1.409       .  A
C368        H377   1.083       .  S
C369        C370   1.424       .  A
C369        S373   1.810       .  S
C370        C371   1.411       .  A
C371        C372   1.401       .  A
C371        H378   1.083       .  S
C372        S374   1.804       .  S
S373        H376   1.407       .  S
S374        H375   1.405       .  S
C379        C380   1.406       .  A
C379        C384   1.408       .  A
C380        C381   1.408       .  A
C380        H389   1.084       .  S
C381        C382   1.418       .  A
C381        S385   1.801       .  S
C382        C383   1.413       .  A
C383        C384   1.397       .  A
C383        H390   1.083       .  S
C384        S386   1.806       .  S
S385        H388   1.408       .  S
S386        H387   1.405       .  S
C391        C392   1.404       .  A
C391        C591   1.404   1_554  A
C391        C439   1.485       .  S
C392        C393   1.402       .  A
C392        H397   1.084       .  S
C393        C589   1.406       .  A
C393        C562   1.482       .  S
C394        C588   1.406       .  A
C394        C395   1.407       .  A
C394        H398   1.084       .  S
C395        C396   1.403       .  A
C395        C574   1.483       .  S
C396        C586   1.404       .  A
C396        H399   1.084       .  S
C400        C401   1.410   1_556  A
C400        C600   1.411       .  A
C400        C438   1.487       .  S
C401        C402   1.402       .  A
C401        H406   1.083       .  S
C402        C598   1.392   1_554  A
C402        C538   1.473       .  S
C403        C597   1.392       .  A
C403        C404   1.392       .  A
C403        H407   1.086       .  S
C404        C405   1.404       .  A
C404        C553   1.473       .  S
C405        C595   1.411       .  A
C405        H408   1.083       .  S
C409        C410   1.406   1_556  A
C409        C609   1.402       .  A
C409        C440   1.481       .  S
C410        C411   1.405       .  A
C410        H415   1.084       .  S
C411        C607   1.405   1_554  A
C411        C517   1.487       .  S
C412        C606   1.405       .  A
C412        C413   1.399       .  A
C412        H416   1.084       .  S
C413        C414   1.397       .  A
C413        C526   1.473       .  S
C414        C604   1.402       .  A
C414        H417   1.084       .  S
N418        C423   1.355       .  A
N418        C422   1.354       .  A
N418        H450   1.034   1_556  S
N419        C426   1.353       .  A
N419        C427   1.353       .  A
N420        C425   1.354       .  A
N420        C424   1.353       .  A
N421        C428   1.351   1_556  A
N421        C429   1.351   1_556  A
C422        C430   1.387       .  A
C422       C1218   1.419       .  A
C423        C439   1.420   1_556  A
C423        C431   1.387       .  A
C424        C432   1.389       .  A
C424       C1221   1.417       .  A
C425        C440   1.416       .  A
C425        C433   1.386       .  A
C426        C438   1.418       .  A
C426        C434   1.387   1_556  A
C427        C435   1.387   1_556  A
C428        C436   1.387       .  A
C428        C439   1.414       .  A
C429        C437   1.386       .  A
C430        C431   1.376       .  A
C430       H1222   1.082       .  S
C431        H443   1.082       .  S
C432        C433   1.373       .  A
C432        H444   1.082       .  S
C433        H445   1.082       .  S
C434        C435   1.373       .  A
C434        H446   1.083       .  S
C435        H447   1.082       .  S
C436        C437   1.370       .  A
C436        H448   1.082       .  S
C437        H449   1.082       .  S
C438       C1202   1.419   1_455  A
C441       C1204   1.417   1_455  A
C441        C452   1.483       .  S
H442       C1210   1.082       .  S
C452        C453   1.403   1_556  A
C452        C652   1.406       .  A
C453        C454   1.398       .  A
C453        H458   1.084       .  S
C454        C650   1.400   1_554  A
C454        C490   1.475       .  S
C455        C649   1.400       .  A
C455        C456   1.404       .  A
C455        H459   1.084       .  S
C456        C457   1.406       .  A
C456        C502   1.488       .  S
C457        C647   1.406       .  A
C457        H460   1.083       .  S
O461        C469   1.277       .  A
O461       Co481   2.036       .  S
O462        C470   1.297       .  A
O462       Co482   2.096       .  S
O463        C471   1.251       .  A
O463       Co483   1.967       .  S
O464        C472   1.271       .  A
O464       Co484   1.976       .  S
O465        C471   1.263       .  A
O465       Co482   2.003       .  S
O466        C472   1.277       .  A
O466       Co481   2.016       .  S
O467        C470   1.265       .  A
O467       Co484   1.894       .  S
O468        C469   1.253       .  A
O468       Co483   1.946       .  S
C469        C550   1.472       .  S
C470        C493   1.483       .  S
C471        C541   1.471       .  S
C472        C505   1.472       .  S
O473        C486   1.254       .  A
O473       Co481   1.966       .  S
O474        C487   1.269       .  A
O474       Co482   1.975       .  S
O475        C488   1.275       .  A
O475       Co483   2.050       .  S
O476        C489   1.300       .  A
O476       Co484   2.123       .  S
O477        C489   1.263       .  A
O477       Co482   1.876       .  S
O478        C488   1.255       .  A
O478       Co481   1.951       .  S
O479        C486   1.260       .  A
O479       Co484   2.014       .  S
O480        C487   1.276       .  A
O480       Co483   2.031       .  S
Co481       O485   2.003       .  S
Co482       O485   1.985       .  S
Co483       O485   2.048       .  S
Co484       O485   2.031       .  S
C486        C529   1.492       .  S
C487        C565   1.501       .  S
C488        C577   1.497       .  S
C489        C514   1.487       .  S
C490        C491   1.401       .  A
C490        C495   1.407       .  A
C491        C492   1.401       .  A
C491        H500   1.084       .  S
C492        C493   1.419       .  A
C492        S496   1.799       .  S
C493        C494   1.404       .  A
C494        C495   1.395       .  A
C494        H501   1.079       .  S
C495        S497   1.806       .  S
S496        H499   1.406       .  S
S497        H693   1.407       .  S
H498        S692   1.407       .  S
C502        C503   1.406       .  A
C502        C507   1.416       .  A
C503        C504   1.405       .  A
C503        H512   1.082       .  S
C504        C505   1.410       .  A
C504        S508   1.804       .  S
C505        C506   1.399       .  A
C506        C507   1.394       .  A
C506        H513   1.083       .  S
C507        S509   1.802       .  S
S508        H511   1.407       .  S
S509        H705   1.407       .  S
H510        S704   1.407       .  S
C514        C515   1.406       .  A
C514        C519   1.415       .  A
C515        C516   1.396       .  A
C515        H524   1.084       .  S
C516        C517   1.414       .  A
C516        S520   1.806       .  S
C517        C518   1.406       .  A
C518        C519   1.406       .  A
C518        H525   1.084       .  S
C519        S521   1.798       .  S
S520        H523   1.407       .  S
S521        H522   1.407       .  S
C526        C527   1.400       .  A
C526        C531   1.407       .  A
C527        C528   1.407       .  A
C527        H536   1.083       .  S
C528        C529   1.421       .  A
C528        S532   1.805       .  S
C529        C530   1.409       .  A
C530        C531   1.394       .  A
C530        H537   1.084       .  S
C531        S533   1.804       .  S
S532        H535   1.407       .  S
S533        H534   1.404       .  S
C538        C539   1.402       .  A
C538        C543   1.411       .  A
C539        C540   1.403       .  A
C539        H548   1.084       .  S
C540        C541   1.418       .  A
C540        S544   1.804       .  S
C541        C542   1.400       .  A
C542        C543   1.390       .  A
C542        H549   1.084       .  S
C543        S545   1.803       .  S
S544        H547   1.401       .  S
S545        H546   1.407       .  S
C550        C551   1.401       .  A
C550        C555   1.421       .  A
C551        C552   1.391       .  A
C551        H560   1.085       .  S
C552        C553   1.410       .  A
C552        S556   1.803       .  S
C553        C554   1.401       .  A
C554        C555   1.404       .  A
C554        H561   1.084       .  S
C555        S557   1.809       .  S
S556        H559   1.406       .  S
S557        H558   1.399       .  S
C562        C563   1.401       .  A
C562        C567   1.409       .  A
C563        C564   1.409       .  A
C563        H572   1.083       .  S
C564        C565   1.424       .  A
C564        S568   1.810       .  S
C565        C566   1.411       .  A
C566        C567   1.401       .  A
C566        H573   1.083       .  S
C567        S569   1.804       .  S
S568        H571   1.407       .  S
S569        H570   1.405       .  S
C574        C575   1.406       .  A
C574        C579   1.408       .  A
C575        C576   1.408       .  A
C575        H584   1.084       .  S
C576        C577   1.418       .  A
C576        S580   1.801       .  S
C577        C578   1.413       .  A
C578        C579   1.397       .  A
C578        H585   1.083       .  S
C579        S581   1.806       .  S
S580        H583   1.408       .  S
S581        H582   1.406       .  S
C586        C587   1.404       .  A
C586        C634   1.484       .  S
C587        C588   1.402       .  A
C587        H592   1.084       .  S
C588        C757   1.483       .  S
C589        C590   1.407   1_554  A
C589        H593   1.084       .  S
C590        C591   1.403       .  A
C590        C769   1.482       .  S
C591        H594   1.084       .  S
C595        C596   1.410       .  A
C595        C633   1.487       .  S
C596        C597   1.402       .  A
C596        H601   1.083       .  S
C597        C733   1.473       .  S
C598        C599   1.391       .  A
C598        H602   1.086       .  S
C599        C600   1.403       .  A
C599        C748   1.472       .  S
C600        H603   1.083       .  S
C604        C605   1.406       .  A
C604        C635   1.480       .  S
C605        C606   1.405       .  A
C605        H610   1.084       .  S
C606        C712   1.487       .  S
C607        C608   1.400       .  A
C607        H611   1.084       .  S
C608        C609   1.397       .  A
C608        C721   1.474       .  S
C609        H612   1.084       .  S
N613        C618   1.355       .  A
N613        C617   1.354       .  A
N613        H645   1.035       .  S
N614        C621   1.353       .  A
N614        C622   1.353       .  A
N615        C620   1.354       .  A
N615        C619   1.353       .  A
N616        C623   1.351       .  A
N616        C624   1.351       .  A
C617        C625   1.387       .  A
C617       C1413   1.419       .  A
C618        C634   1.420       .  A
C618        C626   1.387       .  A
C619        C627   1.389       .  A
C619       C1416   1.417       .  A
C620        C635   1.416       .  A
C620        C628   1.386       .  A
C621        C633   1.418       .  A
C621        C629   1.387       .  A
C622        C630   1.387       .  A
C623        C631   1.387       .  A
C623        C634   1.413       .  A
C624        C632   1.386       .  A
C625        C626   1.376       .  A
C625       H1417   1.082       .  S
C626        H638   1.082       .  S
C627        C628   1.373       .  A
C627        H639   1.082       .  S
C628        H640   1.082       .  S
C629        C630   1.374       .  A
C629        H641   1.083       .  S
C630        H642   1.082       .  S
C631        C632   1.370       .  A
C631        H643   1.082       .  S
C632        H644   1.082       .  S
C633       C1397   1.419   1_455  A
C636       C1399   1.417   1_455  A
C636        C647   1.483       .  S
H637       C1405   1.082       .  S
C647        C648   1.403       .  A
C648        C649   1.398       .  A
C648        H653   1.084       .  S
C649        C685   1.475       .  S
C650        C651   1.404       .  A
C650        H654   1.084       .  S
C651        C652   1.406       .  A
C651        C697   1.488       .  S
C652        H655   1.083       .  S
O656        C664   1.277       .  A
O656       Co676   2.036       .  S
O657        C665   1.297       .  A
O657       Co677   2.096       .  S
O658        C666   1.251       .  A
O658       Co678   1.966       .  S
O659        C667   1.271       .  A
O659       Co679   1.976       .  S
O660        C666   1.263       .  A
O660       Co677   2.004       .  S
O661        C667   1.277       .  A
O661       Co676   2.015       .  S
O662        C665   1.265       .  A
O662       Co679   1.894       .  S
O663        C664   1.253       .  A
O663       Co678   1.946       .  S
C664        C745   1.472       .  S
C665        C688   1.483       .  S
C666        C736   1.470       .  S
C667        C700   1.472       .  S
O668        C681   1.254       .  A
O668       Co676   1.967       .  S
O669        C682   1.269       .  A
O669       Co677   1.975       .  S
O670        C683   1.275       .  A
O670       Co678   2.049       .  S
O671        C684   1.300       .  A
O671       Co679   2.123       .  S
O672        C684   1.263       .  A
O672       Co677   1.876       .  S
O673        C683   1.255       .  A
O673       Co676   1.951       .  S
O674        C681   1.260       .  A
O674       Co679   2.014       .  S
O675        C682   1.276       .  A
O675       Co678   2.031       .  S
Co676       O680   2.002       .  S
Co677       O680   1.985       .  S
Co678       O680   2.047       .  S
Co679       O680   2.030       .  S
C681        C724   1.492       .  S
C682        C760   1.501       .  S
C683        C772   1.497       .  S
C684        C709   1.486       .  S
C685        C686   1.401       .  A
C685        C690   1.407       .  A
C686        C687   1.401       .  A
C686        H695   1.084       .  S
C687        C688   1.419       .  A
C687        S691   1.799       .  S
C688        C689   1.404       .  A
C689        C690   1.396       .  A
C689        H696   1.079       .  S
C690        S692   1.806       .  S
S691        H694   1.406       .  S
C697        C698   1.406       .  A
C697        C702   1.416       .  A
C698        C699   1.405       .  A
C698        H707   1.082       .  S
C699        C700   1.410       .  A
C699        S703   1.804       .  S
C700        C701   1.399       .  A
C701        C702   1.394       .  A
C701        H708   1.083       .  S
C702        S704   1.802       .  S
S703        H706   1.407       .  S
C709        C710   1.406       .  A
C709        C714   1.415       .  A
C710        C711   1.396       .  A
C710        H719   1.084       .  S
C711        C712   1.414       .  A
C711        S715   1.806       .  S
C712        C713   1.406       .  A
C713        C714   1.405       .  A
C713        H720   1.084       .  S
C714        S716   1.798       .  S
S715        H718   1.407       .  S
S716        H717   1.407       .  S
C721        C722   1.400       .  A
C721        C726   1.407       .  A
C722        C723   1.407       .  A
C722        H731   1.083       .  S
C723        C724   1.421       .  A
C723        S727   1.805       .  S
C724        C725   1.408       .  A
C725        C726   1.394       .  A
C725        H732   1.084       .  S
C726        S728   1.804       .  S
S727        H730   1.407       .  S
S728        H729   1.404       .  S
C733        C734   1.402       .  A
C733        C738   1.411       .  A
C734        C735   1.403       .  A
C734        H743   1.084       .  S
C735        C736   1.418       .  A
C735        S739   1.805       .  S
C736        C737   1.400       .  A
C737        C738   1.390       .  A
C737        H744   1.084       .  S
C738        S740   1.803       .  S
S739        H742   1.401       .  S
S740        H741   1.407       .  S
C745        C746   1.401       .  A
C745        C750   1.421       .  A
C746        C747   1.391       .  A
C746        H755   1.085       .  S
C747        C748   1.410       .  A
C747        S751   1.803       .  S
C748        C749   1.401       .  A
C749        C750   1.404       .  A
C749        H756   1.084       .  S
C750        S752   1.809       .  S
S751        H754   1.406       .  S
S752        H753   1.399       .  S
C757        C758   1.401       .  A
C757        C762   1.408       .  A
C758        C759   1.409       .  A
C758        H767   1.083       .  S
C759        C760   1.424       .  A
C759        S763   1.810       .  S
C760        C761   1.411       .  A
C761        C762   1.401       .  A
C761        H768   1.083       .  S
C762        S764   1.804       .  S
S763        H766   1.406       .  S
S764        H765   1.405       .  S
C769        C770   1.406       .  A
C769        C774   1.408       .  A
C770        C771   1.408       .  A
C770        H779   1.084       .  S
C771        C772   1.418       .  A
C771        S775   1.801       .  S
C772        C773   1.413       .  A
C773        C774   1.397       .  A
C773        H780   1.083       .  S
C774        S776   1.806       .  S
S775        H778   1.408       .  S
S776        H777   1.406       .  S
C781        C782   1.404       .  A
C781        C981   1.404   1_554  A
C781        C829   1.485       .  S
C782        C783   1.402       .  A
C782        H787   1.084       .  S
C783        C979   1.406       .  A
C783        C952   1.483       .  S
C784        C978   1.406       .  A
C784        C785   1.407       .  A
C784        H788   1.084       .  S
C785        C786   1.403       .  A
C785        C964   1.483       .  S
C786        C976   1.404       .  A
C786        H789   1.084       .  S
C790        C791   1.410   1_556  A
C790        C990   1.411       .  A
C790        C828   1.487       .  S
C791        C792   1.402       .  A
C791        H796   1.083       .  S
C792        C988   1.392   1_554  A
C792        C928   1.473       .  S
C793        C987   1.392       .  A
C793        C794   1.392       .  A
C793        H797   1.086       .  S
C794        C795   1.404       .  A
C794        C943   1.473       .  S
C795        C985   1.411       .  A
C795        H798   1.083       .  S
C799        C800   1.406   1_556  A
C799        C999   1.402       .  A
C799        C830   1.481       .  S
C800        C801   1.405       .  A
C800        H805   1.084       .  S
C801        C997   1.405   1_554  A
C801        C907   1.487       .  S
C802        C996   1.405       .  A
C802        C803   1.399       .  A
C802        H806   1.084       .  S
C803        C804   1.397       .  A
C803        C916   1.473       .  S
C804        C994   1.402       .  A
C804        H807   1.084       .  S
N808        C813   1.355       .  A
N808        C812   1.354       .  A
N808        H840   1.034   1_556  S
N809        C816   1.353       .  A
N809        C817   1.353       .  A
N810        C815   1.354       .  A
N810        C814   1.353       .  A
N810       H1231   1.035   1_546  S
N811        C818   1.351   1_556  A
N811        C819   1.351   1_556  A
C812        C820   1.387       .  A
C813        C829   1.420   1_556  A
C813        C821   1.387       .  A
C814        C822   1.389       .  A
C815        C830   1.416       .  A
C815        C823   1.386       .  A
C816        C828   1.418       .  A
C816        C824   1.387   1_556  A
C817       C1221   1.418       .  A
C817        C825   1.387   1_556  A
C818        C826   1.387       .  A
C818        C829   1.414       .  A
C819        C827   1.386       .  A
C819       C1220   1.412   1_554  A
C820        C821   1.376       .  A
C821        H833   1.082       .  S
C822        C823   1.373       .  A
C822        H834   1.082   1_655  S
C823        H835   1.082       .  S
C824        C825   1.374       .  A
C824        H836   1.083       .  S
C825        H837   1.082       .  S
C826        C827   1.370       .  A
C826        H838   1.082       .  S
C827        H839   1.082       .  S
C830       C1209   1.412   1_546  A
C831       C1207   1.418   1_545  A
C831        C842   1.483       .  S
H841       N1200   1.035   1_554  S
C842        C843   1.403   1_556  A
C842       C1042   1.406       .  A
C843        C844   1.398       .  A
C843        H848   1.084       .  S
C844       C1040   1.400   1_554  A
C844        C880   1.475       .  S
C845       C1039   1.400       .  A
C845        C846   1.404       .  A
C845        H849   1.084       .  S
C846        C847   1.406       .  A
C846        C892   1.488       .  S
C847       C1037   1.406       .  A
C847        H850   1.083       .  S
O851        C859   1.277       .  A
O851       Co871   2.036       .  S
O852        C860   1.297       .  A
O852       Co872   2.096       .  S
O853        C861   1.251       .  A
O853       Co873   1.967       .  S
O854        C862   1.271       .  A
O854       Co874   1.976       .  S
O855        C861   1.263       .  A
O855       Co872   2.004       .  S
O856        C862   1.277       .  A
O856       Co871   2.016       .  S
O857        C860   1.265       .  A
O857       Co874   1.894       .  S
O858        C859   1.253       .  A
O858       Co873   1.946       .  S
C859        C940   1.472       .  S
C860        C883   1.483       .  S
C861        C931   1.471       .  S
C862        C895   1.472       .  S
O863        C876   1.254       .  A
O863       Co871   1.966       .  S
O864        C877   1.269       .  A
O864       Co872   1.975       .  S
O865        C878   1.275       .  A
O865       Co873   2.050       .  S
O866        C879   1.300       .  A
O866       Co874   2.124       .  S
O867        C879   1.263       .  A
O867       Co872   1.876       .  S
O868        C878   1.255       .  A
O868       Co871   1.951       .  S
O869        C876   1.260       .  A
O869       Co874   2.014       .  S
O870        C877   1.276       .  A
O870       Co873   2.031       .  S
Co871       O875   2.003       .  S
Co872       O875   1.985       .  S
Co873       O875   2.048       .  S
Co874       O875   2.031       .  S
C876        C919   1.492       .  S
C877        C955   1.501       .  S
C878        C967   1.498       .  S
C879        C904   1.487       .  S
C880        C881   1.401       .  A
C880        C885   1.407       .  A
C881        C882   1.401       .  A
C881        H890   1.084       .  S
C882        C883   1.419       .  A
C882        S886   1.799       .  S
C883        C884   1.404       .  A
C884        C885   1.396       .  A
C884        H891   1.079       .  S
C885        S887   1.806       .  S
S886        H889   1.406       .  S
S887       H1083   1.407       .  S
H888       S1082   1.407       .  S
C892        C893   1.406       .  A
C892        C897   1.416       .  A
C893        C894   1.405       .  A
C893        H902   1.082       .  S
C894        C895   1.410       .  A
C894        S898   1.804       .  S
C895        C896   1.399       .  A
C896        C897   1.394       .  A
C896        H903   1.083       .  S
C897        S899   1.802       .  S
S898        H901   1.407       .  S
S899       H1095   1.407       .  S
H900       S1094   1.407       .  S
C904        C905   1.406       .  A
C904        C909   1.415       .  A
C905        C906   1.396       .  A
C905        H914   1.084       .  S
C906        C907   1.414       .  A
C906        S910   1.806       .  S
C907        C908   1.406       .  A
C908        C909   1.406       .  A
C908        H915   1.084       .  S
C909        S911   1.798       .  S
S910        H913   1.407       .  S
S911        H912   1.407       .  S
C916        C917   1.400       .  A
C916        C921   1.407       .  A
C917        C918   1.407       .  A
C917        H926   1.083       .  S
C918        C919   1.421       .  A
C918        S922   1.805       .  S
C919        C920   1.409       .  A
C920        C921   1.394       .  A
C920        H927   1.084       .  S
C921        S923   1.804       .  S
S922        H925   1.407       .  S
S923        H924   1.404       .  S
C928        C929   1.402       .  A
C928        C933   1.411       .  A
C929        C930   1.403       .  A
C929        H938   1.084       .  S
C930        C931   1.418       .  A
C930        S934   1.805       .  S
C931        C932   1.400       .  A
C932        C933   1.390       .  A
C932        H939   1.084       .  S
C933        S935   1.803       .  S
S934        H937   1.401       .  S
S935        H936   1.407       .  S
C940        C941   1.401       .  A
C940        C945   1.421       .  A
C941        C942   1.391       .  A
C941        H950   1.085       .  S
C942        C943   1.410       .  A
C942        S946   1.803       .  S
C943        C944   1.401       .  A
C944        C945   1.404       .  A
C944        H951   1.084       .  S
C945        S947   1.809       .  S
S946        H949   1.406       .  S
S947        H948   1.399       .  S
C952        C953   1.401       .  A
C952        C957   1.409       .  A
C953        C954   1.409       .  A
C953        H962   1.083       .  S
C954        C955   1.424       .  A
C954        S958   1.810       .  S
C955        C956   1.411       .  A
C956        C957   1.401       .  A
C956        H963   1.083       .  S
C957        S959   1.804       .  S
S958        H961   1.407       .  S
S959        H960   1.405       .  S
C964        C965   1.406       .  A
C964        C969   1.408       .  A
C965        C966   1.408       .  A
C965        H974   1.084       .  S
C966        C967   1.418       .  A
C966        S970   1.801       .  S
C967        C968   1.413       .  A
C968        C969   1.397       .  A
C968        H975   1.083       .  S
C969        S971   1.806       .  S
S970        H973   1.408       .  S
S971        H972   1.405       .  S
C976        C977   1.404       .  A
C976       C1024   1.484       .  S
C977        C978   1.402       .  A
C977        H982   1.084       .  S
C978       C1147   1.483       .  S
C979        C980   1.407   1_554  A
C979        H983   1.084       .  S
C980        C981   1.403       .  A
C980       C1159   1.482       .  S
C981        H984   1.084       .  S
C985        C986   1.410       .  A
C985       C1023   1.486       .  S
C986        C987   1.402       .  A
C986        H991   1.083       .  S
C987       C1123   1.473       .  S
C988        C989   1.392       .  A
C988        H992   1.086       .  S
C989        C990   1.403       .  A
C989       C1138   1.472       .  S
C990        H993   1.083       .  S
C994        C995   1.406       .  A
C994       C1025   1.480       .  S
C995        C996   1.405       .  A
C995       H1000   1.084       .  S
C996       C1102   1.487       .  S
C997        C998   1.400       .  A
C997       H1001   1.084       .  S
C998        C999   1.397       .  A
C998       C1111   1.474       .  S
C999       H1002   1.084       .  S
N1003      C1008   1.355       .  A
N1003      C1007   1.354       .  A
N1003      H1035   1.035       .  S
N1004      C1011   1.353       .  A
N1004      C1012   1.353       .  A
N1005      C1010   1.354       .  A
N1005      C1009   1.353       .  A
N1005      H1426   1.035   1_545  S
N1006      C1013   1.351       .  A
N1006      C1014   1.351       .  A
C1007      C1015   1.387       .  A
C1008      C1024   1.420       .  A
C1008      C1016   1.387       .  A
C1009      C1017   1.389       .  A
C1010      C1025   1.416       .  A
C1010      C1018   1.386       .  A
C1011      C1023   1.418       .  A
C1011      C1019   1.387       .  A
C1012      C1416   1.418       .  A
C1012      C1020   1.387       .  A
C1013      C1021   1.387       .  A
C1013      C1024   1.413       .  A
C1014      C1022   1.386       .  A
C1014      C1415   1.412       .  A
C1015      C1016   1.376       .  A
C1016      H1028   1.082       .  S
C1017      C1018   1.373       .  A
C1017      H1029   1.082   1_655  S
C1018      H1030   1.082       .  S
C1019      C1020   1.374       .  A
C1019      H1031   1.083       .  S
C1020      H1032   1.082       .  S
C1021      C1022   1.370       .  A
C1021      H1033   1.082       .  S
C1022      H1034   1.082       .  S
C1025      C1404   1.412   1_545  A
C1026      C1402   1.418   1_545  A
C1026      C1037   1.483       .  S
H1036      N1395   1.035       .  S
C1037      C1038   1.403       .  A
C1038      C1039   1.398       .  A
C1038      H1043   1.084       .  S
C1039      C1075   1.475       .  S
C1040      C1041   1.404       .  A
C1040      H1044   1.084       .  S
C1041      C1042   1.406       .  A
C1041      C1087   1.488       .  S
C1042      H1045   1.083       .  S
O1046      C1054   1.277       .  A
O1046     Co1066   2.036       .  S
O1047      C1055   1.297       .  A
O1047     Co1067   2.096       .  S
O1048      C1056   1.251       .  A
O1048     Co1068   1.966       .  S
O1049      C1057   1.271       .  A
O1049     Co1069   1.976       .  S
O1050      C1056   1.263       .  A
O1050     Co1067   2.004       .  S
O1051      C1057   1.277       .  A
O1051     Co1066   2.015       .  S
O1052      C1055   1.265       .  A
O1052     Co1069   1.894       .  S
O1053      C1054   1.253       .  A
O1053     Co1068   1.946       .  S
C1054      C1135   1.472       .  S
C1055      C1078   1.483       .  S
C1056      C1126   1.470       .  S
C1057      C1090   1.472       .  S
O1058      C1071   1.254       .  A
O1058     Co1066   1.967       .  S
O1059      C1072   1.269       .  A
O1059     Co1067   1.974       .  S
O1060      C1073   1.275       .  A
O1060     Co1068   2.049       .  S
O1061      C1074   1.300       .  A
O1061     Co1069   2.123       .  S
O1062      C1074   1.263       .  A
O1062     Co1067   1.876       .  S
O1063      C1073   1.255       .  A
O1063     Co1066   1.951       .  S
O1064      C1071   1.260       .  A
O1064     Co1069   2.014       .  S
O1065      C1072   1.276       .  A
O1065     Co1068   2.031       .  S
Co1066     O1070   2.002       .  S
Co1067     O1070   1.985       .  S
Co1068     O1070   2.047       .  S
Co1069     O1070   2.031       .  S
C1071      C1114   1.492       .  S
C1072      C1150   1.501       .  S
C1073      C1162   1.497       .  S
C1074      C1099   1.486       .  S
C1075      C1076   1.401       .  A
C1075      C1080   1.407       .  A
C1076      C1077   1.401       .  A
C1076      H1085   1.084       .  S
C1077      C1078   1.419       .  A
C1077      S1081   1.799       .  S
C1078      C1079   1.404       .  A
C1079      C1080   1.396       .  A
C1079      H1086   1.079       .  S
C1080      S1082   1.806       .  S
S1081      H1084   1.406       .  S
C1087      C1088   1.406       .  A
C1087      C1092   1.416       .  A
C1088      C1089   1.405       .  A
C1088      H1097   1.082       .  S
C1089      C1090   1.410       .  A
C1089      S1093   1.804       .  S
C1090      C1091   1.399       .  A
C1091      C1092   1.394       .  A
C1091      H1098   1.083       .  S
C1092      S1094   1.802       .  S
S1093      H1096   1.407       .  S
C1099      C1100   1.406       .  A
C1099      C1104   1.415       .  A
C1100      C1101   1.396       .  A
C1100      H1109   1.084       .  S
C1101      C1102   1.414       .  A
C1101      S1105   1.806       .  S
C1102      C1103   1.406       .  A
C1103      C1104   1.405       .  A
C1103      H1110   1.084       .  S
C1104      S1106   1.798       .  S
S1105      H1108   1.407       .  S
S1106      H1107   1.407       .  S
C1111      C1112   1.400       .  A
C1111      C1116   1.407       .  A
C1112      C1113   1.407       .  A
C1112      H1121   1.083       .  S
C1113      C1114   1.421       .  A
C1113      S1117   1.805       .  S
C1114      C1115   1.409       .  A
C1115      C1116   1.394       .  A
C1115      H1122   1.084       .  S
C1116      S1118   1.804       .  S
S1117      H1120   1.407       .  S
S1118      H1119   1.404       .  S
C1123      C1124   1.402       .  A
C1123      C1128   1.411       .  A
C1124      C1125   1.403       .  A
C1124      H1133   1.084       .  S
C1125      C1126   1.418       .  A
C1125      S1129   1.805       .  S
C1126      C1127   1.400       .  A
C1127      C1128   1.390       .  A
C1127      H1134   1.084       .  S
C1128      S1130   1.803       .  S
S1129      H1132   1.401       .  S
S1130      H1131   1.407       .  S
C1135      C1136   1.401       .  A
C1135      C1140   1.421       .  A
C1136      C1137   1.391       .  A
C1136      H1145   1.085       .  S
C1137      C1138   1.410       .  A
C1137      S1141   1.803       .  S
C1138      C1139   1.401       .  A
C1139      C1140   1.404       .  A
C1139      H1146   1.084       .  S
C1140      S1142   1.809       .  S
S1141      H1144   1.406       .  S
S1142      H1143   1.399       .  S
C1147      C1148   1.401       .  A
C1147      C1152   1.409       .  A
C1148      C1149   1.409       .  A
C1148      H1157   1.083       .  S
C1149      C1150   1.424       .  A
C1149      S1153   1.810       .  S
C1150      C1151   1.411       .  A
C1151      C1152   1.401       .  A
C1151      H1158   1.083       .  S
C1152      S1154   1.804       .  S
S1153      H1156   1.407       .  S
S1154      H1155   1.405       .  S
C1159      C1160   1.406       .  A
C1159      C1164   1.408       .  A
C1160      C1161   1.408       .  A
C1160      H1169   1.084       .  S
C1161      C1162   1.418       .  A
C1161      S1165   1.801       .  S
C1162      C1163   1.413       .  A
C1163      C1164   1.397       .  A
C1163      H1170   1.083       .  S
C1164      S1166   1.806       .  S
S1165      H1168   1.408       .  S
S1166      H1167   1.405       .  S
C1171      C1172   1.404       .  A
C1171      C1371   1.404   1_554  A
C1171      C1219   1.485       .  S
C1172      C1173   1.402       .  A
C1172      H1177   1.084       .  S
C1173      C1369   1.406       .  A
C1173      C1342   1.483       .  S
C1174      C1368   1.406       .  A
C1174      C1175   1.407       .  A
C1174      H1178   1.084       .  S
C1175      C1176   1.403       .  A
C1175      C1354   1.483       .  S
C1176      C1366   1.404       .  A
C1176      H1179   1.084       .  S
C1180      C1181   1.410   1_556  A
C1180      C1380   1.411       .  A
C1180      C1218   1.487       .  S
C1181      C1182   1.402       .  A
C1181      H1186   1.083       .  S
C1182      C1378   1.392   1_554  A
C1182      C1318   1.473       .  S
C1183      C1377   1.392       .  A
C1183      C1184   1.392       .  A
C1183      H1187   1.086       .  S
C1184      C1185   1.404       .  A
C1184      C1333   1.473       .  S
C1185      C1375   1.411       .  A
C1185      H1188   1.083       .  S
C1189      C1190   1.406   1_556  A
C1189      C1389   1.402       .  A
C1189      C1220   1.481       .  S
C1190      C1191   1.405       .  A
C1190      H1195   1.084       .  S
C1191      C1387   1.405   1_554  A
C1191      C1297   1.487       .  S
C1192      C1386   1.405       .  A
C1192      C1193   1.399       .  A
C1192      H1196   1.084       .  S
C1193      C1194   1.397       .  A
C1193      C1306   1.473       .  S
C1194      C1384   1.402       .  A
C1194      H1197   1.084       .  S
N1198      C1203   1.355       .  A
N1198      C1202   1.354       .  A
N1198      H1230   1.034   1_556  S
N1199      C1206   1.353       .  A
N1199      C1207   1.353       .  A
N1200      C1205   1.354       .  A
N1200      C1204   1.353       .  A
N1201      C1208   1.351   1_556  A
N1201      C1209   1.351   1_556  A
C1202      C1210   1.387       .  A
C1203      C1219   1.420   1_556  A
C1203      C1211   1.387       .  A
C1204      C1212   1.389       .  A
C1205      C1220   1.416       .  A
C1205      C1213   1.386       .  A
C1206      C1218   1.418       .  A
C1206      C1214   1.387   1_556  A
C1207      C1215   1.387   1_556  A
C1208      C1216   1.387       .  A
C1208      C1219   1.414       .  A
C1209      C1217   1.386       .  A
C1210      C1211   1.376       .  A
C1211      H1223   1.082       .  S
C1212      C1213   1.373       .  A
C1212      H1224   1.082   1_655  S
C1213      H1225   1.082       .  S
C1214      C1215   1.373       .  A
C1214      H1226   1.083       .  S
C1215      H1227   1.082       .  S
C1216      C1217   1.370       .  A
C1216      H1228   1.082       .  S
C1217      H1229   1.082       .  S
C1221      C1232   1.484       .  S
C1232      C1233   1.403   1_556  A
C1232      C1432   1.406       .  A
C1233      C1234   1.398       .  A
C1233      H1238   1.084       .  S
C1234      C1430   1.400   1_554  A
C1234      C1270   1.475       .  S
C1235      C1429   1.400       .  A
C1235      C1236   1.404       .  A
C1235      H1239   1.084       .  S
C1236      C1237   1.406       .  A
C1236      C1282   1.488       .  S
C1237      C1427   1.406       .  A
C1237      H1240   1.083       .  S
O1241      C1249   1.277       .  A
O1241     Co1261   2.036       .  S
O1242      C1250   1.297       .  A
O1242     Co1262   2.096       .  S
O1243      C1251   1.251       .  A
O1243     Co1263   1.967       .  S
O1244      C1252   1.271       .  A
O1244     Co1264   1.976       .  S
O1245      C1251   1.263       .  A
O1245     Co1262   2.003       .  S
O1246      C1252   1.277       .  A
O1246     Co1261   2.016       .  S
O1247      C1250   1.265       .  A
O1247     Co1264   1.894       .  S
O1248      C1249   1.253       .  A
O1248     Co1263   1.946       .  S
C1249      C1330   1.472       .  S
C1250      C1273   1.483       .  S
C1251      C1321   1.470       .  S
C1252      C1285   1.472       .  S
O1253      C1266   1.254       .  A
O1253     Co1261   1.966       .  S
O1254      C1267   1.269       .  A
O1254     Co1262   1.975       .  S
O1255      C1268   1.275       .  A
O1255     Co1263   2.050       .  S
O1256      C1269   1.300       .  A
O1256     Co1264   2.123       .  S
O1257      C1269   1.263       .  A
O1257     Co1262   1.876       .  S
O1258      C1268   1.255       .  A
O1258     Co1261   1.951       .  S
O1259      C1266   1.260       .  A
O1259     Co1264   2.014       .  S
O1260      C1267   1.276       .  A
O1260     Co1263   2.031       .  S
Co1261     O1265   2.003       .  S
Co1262     O1265   1.985       .  S
Co1263     O1265   2.048       .  S
Co1264     O1265   2.031       .  S
C1266      C1309   1.492       .  S
C1267      C1345   1.501       .  S
C1268      C1357   1.497       .  S
C1269      C1294   1.487       .  S
C1270      C1271   1.401       .  A
C1270      C1275   1.407       .  A
C1271      C1272   1.401       .  A
C1271      H1280   1.084       .  S
C1272      C1273   1.419       .  A
C1272      S1276   1.799       .  S
C1273      C1274   1.404       .  A
C1274      C1275   1.396       .  A
C1274      H1281   1.079       .  S
C1275      S1277   1.806       .  S
S1276      H1279   1.406       .  S
S1277      H1473   1.407       .  S
H1278      S1472   1.407       .  S
C1282      C1283   1.406       .  A
C1282      C1287   1.416       .  A
C1283      C1284   1.405       .  A
C1283      H1292   1.082       .  S
C1284      C1285   1.410       .  A
C1284      S1288   1.804       .  S
C1285      C1286   1.399       .  A
C1286      C1287   1.394       .  A
C1286      H1293   1.083       .  S
C1287      S1289   1.802       .  S
S1288      H1291   1.407       .  S
S1289      H1485   1.407       .  S
H1290      S1484   1.407       .  S
C1294      C1295   1.406       .  A
C1294      C1299   1.415       .  A
C1295      C1296   1.396       .  A
C1295      H1304   1.084       .  S
C1296      C1297   1.414       .  A
C1296      S1300   1.806       .  S
C1297      C1298   1.406       .  A
C1298      C1299   1.406       .  A
C1298      H1305   1.084       .  S
C1299      S1301   1.798       .  S
S1300      H1303   1.407       .  S
S1301      H1302   1.407       .  S
C1306      C1307   1.400       .  A
C1306      C1311   1.407       .  A
C1307      C1308   1.407       .  A
C1307      H1316   1.083       .  S
C1308      C1309   1.421       .  A
C1308      S1312   1.805       .  S
C1309      C1310   1.409       .  A
C1310      C1311   1.394       .  A
C1310      H1317   1.084       .  S
C1311      S1313   1.804       .  S
S1312      H1315   1.407       .  S
S1313      H1314   1.404       .  S
C1318      C1319   1.402       .  A
C1318      C1323   1.411       .  A
C1319      C1320   1.403       .  A
C1319      H1328   1.084       .  S
C1320      C1321   1.418       .  A
C1320      S1324   1.805       .  S
C1321      C1322   1.400       .  A
C1322      C1323   1.390       .  A
C1322      H1329   1.084       .  S
C1323      S1325   1.803       .  S
S1324      H1327   1.401       .  S
S1325      H1326   1.407       .  S
C1330      C1331   1.401       .  A
C1330      C1335   1.421       .  A
C1331      C1332   1.391       .  A
C1331      H1340   1.085       .  S
C1332      C1333   1.410       .  A
C1332      S1336   1.803       .  S
C1333      C1334   1.401       .  A
C1334      C1335   1.404       .  A
C1334      H1341   1.084       .  S
C1335      S1337   1.809       .  S
S1336      H1339   1.406       .  S
S1337      H1338   1.399       .  S
C1342      C1343   1.401       .  A
C1342      C1347   1.409       .  A
C1343      C1344   1.409       .  A
C1343      H1352   1.083       .  S
C1344      C1345   1.424       .  A
C1344      S1348   1.810       .  S
C1345      C1346   1.411       .  A
C1346      C1347   1.401       .  A
C1346      H1353   1.083       .  S
C1347      S1349   1.804       .  S
S1348      H1351   1.407       .  S
S1349      H1350   1.405       .  S
C1354      C1355   1.406       .  A
C1354      C1359   1.408       .  A
C1355      C1356   1.408       .  A
C1355      H1364   1.084       .  S
C1356      C1357   1.418       .  A
C1356      S1360   1.801       .  S
C1357      C1358   1.413       .  A
C1358      C1359   1.397       .  A
C1358      H1365   1.083       .  S
C1359      S1361   1.806       .  S
S1360      H1363   1.408       .  S
S1361      H1362   1.406       .  S
C1366      C1367   1.404       .  A
C1366      C1414   1.484       .  S
C1367      C1368   1.402       .  A
C1367      H1372   1.084       .  S
C1368      C1537   1.483       .  S
C1369      C1370   1.407   1_554  A
C1369      H1373   1.084       .  S
C1370      C1371   1.403       .  A
C1370      C1549   1.482       .  S
C1371      H1374   1.084       .  S
C1375      C1376   1.410       .  A
C1375      C1413   1.486       .  S
C1376      C1377   1.402       .  A
C1376      H1381   1.083       .  S
C1377      C1513   1.473       .  S
C1378      C1379   1.392       .  A
C1378      H1382   1.086       .  S
C1379      C1380   1.403       .  A
C1379      C1528   1.472       .  S
C1380      H1383   1.083       .  S
C1384      C1385   1.406       .  A
C1384      C1415   1.480       .  S
C1385      C1386   1.405       .  A
C1385      H1390   1.084       .  S
C1386      C1492   1.487       .  S
C1387      C1388   1.400       .  A
C1387      H1391   1.084       .  S
C1388      C1389   1.397       .  A
C1388      C1501   1.474       .  S
C1389      H1392   1.084       .  S
N1393      C1398   1.355       .  A
N1393      C1397   1.354       .  A
N1393      H1425   1.035       .  S
N1394      C1401   1.353       .  A
N1394      C1402   1.353       .  A
N1395      C1400   1.354       .  A
N1395      C1399   1.353       .  A
N1396      C1403   1.351       .  A
N1396      C1404   1.351       .  A
C1397      C1405   1.387       .  A
C1398      C1414   1.420       .  A
C1398      C1406   1.387       .  A
C1399      C1407   1.389       .  A
C1400      C1415   1.416       .  A
C1400      C1408   1.386       .  A
C1401      C1413   1.418       .  A
C1401      C1409   1.387       .  A
C1402      C1410   1.387       .  A
C1403      C1411   1.387       .  A
C1403      C1414   1.413       .  A
C1404      C1412   1.386       .  A
C1405      C1406   1.376       .  A
C1406      H1418   1.082       .  S
C1407      C1408   1.373       .  A
C1407      H1419   1.082   1_655  S
C1408      H1420   1.082       .  S
C1409      C1410   1.374       .  A
C1409      H1421   1.083       .  S
C1410      H1422   1.082       .  S
C1411      C1412   1.370       .  A
C1411      H1423   1.082       .  S
C1412      H1424   1.082       .  S
C1416      C1427   1.483       .  S
C1427      C1428   1.403       .  A
C1428      C1429   1.398       .  A
C1428      H1433   1.084       .  S
C1429      C1465   1.475       .  S
C1430      C1431   1.404       .  A
C1430      H1434   1.084       .  S
C1431      C1432   1.406       .  A
C1431      C1477   1.488       .  S
C1432      H1435   1.083       .  S
O1436      C1444   1.277       .  A
O1436     Co1456   2.036       .  S
O1437      C1445   1.297       .  A
O1437     Co1457   2.096       .  S
O1438      C1446   1.251       .  A
O1438     Co1458   1.966       .  S
O1439      C1447   1.271       .  A
O1439     Co1459   1.976       .  S
O1440      C1446   1.263       .  A
O1440     Co1457   2.004       .  S
O1441      C1447   1.277       .  A
O1441     Co1456   2.015       .  S
O1442      C1445   1.265       .  A
O1442     Co1459   1.894       .  S
O1443      C1444   1.253       .  A
O1443     Co1458   1.946       .  S
C1444      C1525   1.472       .  S
C1445      C1468   1.483       .  S
C1446      C1516   1.470       .  S
C1447      C1480   1.472       .  S
O1448      C1461   1.254       .  A
O1448     Co1456   1.967       .  S
O1449      C1462   1.269       .  A
O1449     Co1457   1.974       .  S
O1450      C1463   1.275       .  A
O1450     Co1458   2.049       .  S
O1451      C1464   1.300       .  A
O1451     Co1459   2.123       .  S
O1452      C1464   1.263       .  A
O1452     Co1457   1.876       .  S
O1453      C1463   1.255       .  A
O1453     Co1456   1.951       .  S
O1454      C1461   1.260       .  A
O1454     Co1459   2.014       .  S
O1455      C1462   1.276       .  A
O1455     Co1458   2.031       .  S
Co1456     O1460   2.002       .  S
Co1457     O1460   1.985       .  S
Co1458     O1460   2.047       .  S
Co1459     O1460   2.030       .  S
C1461      C1504   1.492       .  S
C1462      C1540   1.501       .  S
C1463      C1552   1.497       .  S
C1464      C1489   1.486       .  S
C1465      C1466   1.401       .  A
C1465      C1470   1.407       .  A
C1466      C1467   1.401       .  A
C1466      H1475   1.084       .  S
C1467      C1468   1.419       .  A
C1467      S1471   1.799       .  S
C1468      C1469   1.404       .  A
C1469      C1470   1.396       .  A
C1469      H1476   1.079       .  S
C1470      S1472   1.806       .  S
S1471      H1474   1.406       .  S
C1477      C1478   1.406       .  A
C1477      C1482   1.416       .  A
C1478      C1479   1.405       .  A
C1478      H1487   1.082       .  S
C1479      C1480   1.410       .  A
C1479      S1483   1.804       .  S
C1480      C1481   1.399       .  A
C1481      C1482   1.394       .  A
C1481      H1488   1.083       .  S
C1482      S1484   1.802       .  S
S1483      H1486   1.407       .  S
C1489      C1490   1.406       .  A
C1489      C1494   1.415       .  A
C1490      C1491   1.396       .  A
C1490      H1499   1.084       .  S
C1491      C1492   1.414       .  A
C1491      S1495   1.806       .  S
C1492      C1493   1.406       .  A
C1493      C1494   1.405       .  A
C1493      H1500   1.084       .  S
C1494      S1496   1.798       .  S
S1495      H1498   1.407       .  S
S1496      H1497   1.407       .  S
C1501      C1502   1.400       .  A
C1501      C1506   1.407       .  A
C1502      C1503   1.407       .  A
C1502      H1511   1.083       .  S
C1503      C1504   1.421       .  A
C1503      S1507   1.805       .  S
C1504      C1505   1.409       .  A
C1505      C1506   1.394       .  A
C1505      H1512   1.084       .  S
C1506      S1508   1.804       .  S
S1507      H1510   1.407       .  S
S1508      H1509   1.404       .  S
C1513      C1514   1.402       .  A
C1513      C1518   1.411       .  A
C1514      C1515   1.403       .  A
C1514      H1523   1.084       .  S
C1515      C1516   1.418       .  A
C1515      S1519   1.805       .  S
C1516      C1517   1.400       .  A
C1517      C1518   1.390       .  A
C1517      H1524   1.084       .  S
C1518      S1520   1.803       .  S
S1519      H1522   1.401       .  S
S1520      H1521   1.407       .  S
C1525      C1526   1.401       .  A
C1525      C1530   1.421       .  A
C1526      C1527   1.391       .  A
C1526      H1535   1.085       .  S
C1527      C1528   1.410       .  A
C1527      S1531   1.803       .  S
C1528      C1529   1.401       .  A
C1529      C1530   1.404       .  A
C1529      H1536   1.084       .  S
C1530      S1532   1.809       .  S
S1531      H1534   1.406       .  S
S1532      H1533   1.399       .  S
C1537      C1538   1.401       .  A
C1537      C1542   1.408       .  A
C1538      C1539   1.409       .  A
C1538      H1547   1.083       .  S
C1539      C1540   1.424       .  A
C1539      S1543   1.810       .  S
C1540      C1541   1.411       .  A
C1541      C1542   1.401       .  A
C1541      H1548   1.083       .  S
C1542      S1544   1.804       .  S
S1543      H1546   1.406       .  S
S1544      H1545   1.405       .  S
C1549      C1550   1.406       .  A
C1549      C1554   1.408       .  A
C1550      C1551   1.408       .  A
C1550      H1559   1.084       .  S
C1551      C1552   1.418       .  A
C1551      S1555   1.801       .  S
C1552      C1553   1.413       .  A
C1553      C1554   1.397       .  A
C1553      H1560   1.083       .  S
C1554      S1556   1.806       .  S
S1555      H1558   1.408       .  S
S1556      H1557   1.406       .  S
