geometry optimzed in LAMMPS
_audit_creation_date              2020-11-30 
_audit_creation_method            'lammps2cif' 
_symmetry_space_group_name_H-M    'P1' 
_symmetry_Int_Tables_number       1 
_symmetry_cell_setting            triclinic 
loop_ 
_symmetry_equiv_pos_as_xyz 
  x,y,z 
_cell_length_a                    45.81910705 
_cell_length_b                    45.696846802166036 
_cell_length_c                    46.02095314405393 
_cell_angle_alpha                 89.9056525326404 
_cell_angle_beta                  90.03378715373202 
_cell_angle_gamma                 89.91223401469212 
loop_ 
_atom_site_label 
_atom_site_type_symbol 
_atom_site_fract_x 
_atom_site_fract_y 
_atom_site_fract_z 
_atom_site_charge 
N1          N  0.57094914  0.49227901  0.04260746    -0.05400
N2          N  0.58779544  0.50146863  0.06406058    -0.57500
N3          N  0.57068173  0.46344056  0.97511657    -0.05100
N4          N  0.58686489  0.45264727  0.95382611    -0.59600
N5          N  0.57240133  0.49217764  0.97536018    -0.04700
N6          N  0.58967739  0.50143336  0.95432767    -0.57500
N7          N  0.56938126  0.46351776  0.04270382    -0.04300
N8          N  0.58522062  0.45268995  0.06428738    -0.60000
C9          C  0.59660607  0.47660662  0.07758785     0.96800
C10         C  0.59868338  0.47662121  0.94098929     0.96600
N11         N  0.48955521  0.41997690  0.97394845    -0.05600
N12         N  0.47873207  0.40491639  0.95192214    -0.58100
N13         N  0.51706982  0.41782585  0.04139440    -0.03700
N14         N  0.52539530  0.39972314  0.06225800    -0.59300
N15         N  0.48843177  0.42039607  0.04121733    -0.05600
N16         N  0.47677427  0.40432091  0.06205400    -0.58300
N17         N  0.51823207  0.41804689  0.97421765    -0.03300
N18         N  0.52734540  0.40156122  0.95242208    -0.59400
Mn19       Mn  0.54448608  0.43992800  0.00837418     1.18400
C20         C  0.50251779  0.39362004  0.93845533     0.98900
C21         C  0.50003890  0.39155181  0.07501343     0.99500
N22         N  0.52709731  0.54404955  0.97377938    -0.05600
N23         N  0.53872447  0.56015998  0.95286484    -0.61900
N24         N  0.49650667  0.54602475  0.04009867    -0.04400
N25         N  0.48671649  0.56278302  0.06129119    -0.62600
N26         N  0.52513456  0.54411133  0.04120390    -0.05100
N27         N  0.53533273  0.55959534  0.06323393    -0.62200
N28         N  0.49844736  0.54593383  0.97302259    -0.04000
N29         N  0.49006801  0.56350944  0.95175928    -0.62900
Mn30       Mn  0.54955070  0.51872938  0.00829759     1.10700
C31         C  0.51536016  0.57205972  0.93912164     1.00100
C32         C  0.51109620  0.57108008  0.07571379     1.00200
N33         N  0.44234783  0.47259522  0.04011236    -0.05100
N34         N  0.42395965  0.46452187  0.06085863    -0.60500
N35         N  0.44652862  0.50016246  0.97190937    -0.04400
N36         N  0.43139095  0.51082196  0.94981294    -0.57200
N37         N  0.44397725  0.47150139  0.97297733    -0.05800
N38         N  0.42684393  0.46209582  0.95188189    -0.60100
N39         N  0.44441132  0.50129715  0.03925453    -0.04700
N40         N  0.42763932  0.51320482  0.05938030    -0.57300
Mn41       Mn  0.46547465  0.44549000  0.00721518     1.20200
Mn42       Mn  0.47096843  0.52399777  0.00595227     1.10100
Cl43       Cl  0.50763284  0.48201482  0.00749924    -0.85200
C44         C  0.41483962  0.49014555  0.07277879     0.97100
C45         C  0.41941441  0.48678698  0.93742298     0.96900
C46         C  0.24669173  0.51737201  0.20999214     0.03900
C47         C  0.22728510  0.53102965  0.19066182    -0.12300
C48         C  0.19979778  0.54077200  0.19986768     0.01400
C49         C  0.19179850  0.53679593  0.22902022    -0.10800
C50         C  0.21062880  0.52308771  0.24906827     0.03900
C51         C  0.23831143  0.51330102  0.23929738    -0.10200
H52         H  0.23361427  0.53380319  0.16812731     0.09500
H53         H  0.17052118  0.54421189  0.23611793     0.07000
H54         H  0.25315573  0.50264042  0.25427942     0.06800
C55         C  0.77391801  0.49141244  0.20403981     0.03900
C56         C  0.79230219  0.50736860  0.18545418    -0.12300
C57         C  0.82081866  0.51454573  0.19371099     0.01400
C58         C  0.83077125  0.50635840  0.22133175    -0.10800
C59         C  0.81273660  0.49096499  0.24069333     0.03900
C60         C  0.78409549  0.48346947  0.23198392    -0.10200
H61         H  0.78437947  0.51400344  0.16423658     0.09500
H62         H  0.85284737  0.51186754  0.22781187     0.07000
H63         H  0.77018828  0.47101021  0.24642413     0.06800
C64         C  0.21217378  0.51032923  0.76512630     0.03900
C65         C  0.24076734  0.50358008  0.77443879    -0.12300
C66         C  0.25077828  0.51390758  0.80158432     0.01400
C67         C  0.23197588  0.53050627  0.81908245    -0.10800
C68         C  0.20327228  0.53626365  0.81047109     0.03900
C69         C  0.19369297  0.52653522  0.78328505    -0.10200
H70         H  0.25509673  0.49084612  0.76064865     0.09500
H71         H  0.23958071  0.53845399  0.83993864     0.07000
H72         H  0.17152159  0.53111888  0.77636370     0.06800
C73         C  0.79890814  0.51108826  0.76223306     0.03900
C74         C  0.81479109  0.53257275  0.77705971    -0.12300
C75         C  0.80803161  0.54028356  0.80582845     0.01400
C76         C  0.78351863  0.52726204  0.81888194    -0.10800
C77         C  0.76553746  0.50778902  0.80340040     0.03900
C78         C  0.77360052  0.49932818  0.77503816    -0.10200
H79         H  0.83355150  0.54215910  0.76637333     0.09500
H80         H  0.77844293  0.53186000  0.84138012     0.07000
H81         H  0.76102894  0.48293065  0.76358950     0.06800
N82         N  0.00562292  0.62546127  0.95578810    -0.35900
N83         N  0.96053634  0.62427769  0.00062474    -0.56400
N84         N  0.00702111  0.62592986  0.04457904    -0.35900
N85         N  0.05194878  0.63153680  0.99966963    -0.56400
C86         C  0.98142174  0.62806716  0.93909218     0.27700
C87         C  0.02893190  0.63095035  0.93865247     0.27700
C88         C  0.98340525  0.62433530  0.06212661     0.27700
C89         C  0.03088774  0.62838160  0.06175272     0.27700
C90         C  0.94369326  0.61859541  0.97718377     0.36300
C91         C  0.94457783  0.61693388  0.02421478     0.36300
C92         C  0.06866556  0.62712559  0.97584664     0.36300
C93         C  0.06945072  0.62709883  0.02297168     0.36300
C94         C  0.98949847  0.63530136  0.91093873    -0.21200
C95         C  0.01949111  0.63711638  0.91066957    -0.21200
C96         C  0.99228991  0.62674377  0.09084243    -0.21200
C97         C  0.02219189  0.62915990  0.09061738    -0.21200
C98         C  0.91652146  0.60866961  0.98594014    -0.22200
C99         C  0.91715700  0.60738463  0.01566853    -0.22200
C100        C  0.09713028  0.62092111  0.98409238    -0.22200
C101        C  0.09768097  0.62118421  0.01383008    -0.22200
C102        C  0.95258004  0.62138792  0.94790415    -0.17600
C103        C  0.05852626  0.62740842  0.94675156    -0.17600
C104        C  0.06031636  0.62634816  0.05241463    -0.17600
C105        C  0.95454812  0.61743362  0.05334694    -0.17600
H106        H  0.97531393  0.63822714  0.89233939     0.15400
H107        H  0.03291790  0.64169914  0.89185819     0.15400
H108        H  0.97873642  0.62560630  0.11007303     0.15400
H109        H  0.03598898  0.63009415  0.10967861     0.15400
H110        H  0.89838853  0.60219435  0.97231862     0.13600
H111        H  0.89956169  0.59969834  0.02935587     0.13600
H112        H  0.11555128  0.61594928  0.97026210     0.13600
H113        H  0.11658645  0.61652095  0.02717913     0.13600
H114        H  0.00643220  0.61780119  0.97656475     0.26900
H115        H  0.00702950  0.62292916  0.02282789     0.26900
N116        N  0.04008909  0.54685643  0.52558262    -0.05400
N117        N  0.06223963  0.56105738  0.53727692    -0.57500
N118        N  0.97394316  0.54720827  0.49331225    -0.05100
N119        N  0.95276975  0.56366277  0.48253049    -0.59600
N120        N  0.97249060  0.54666730  0.52185255    -0.04700
N121        N  0.95034456  0.56276595  0.53098453    -0.57500
N122        N  0.04163927  0.54776088  0.49703459    -0.04300
N123        N  0.06484995  0.56281104  0.48877676    -0.60000
C124        C  0.07763325  0.57077068  0.51412747     0.96800
C125        C  0.93813132  0.57329780  0.50626465     0.96600
N126        N  0.97781747  0.47028081  0.44368679    -0.05600
N127        N  0.95733065  0.45993904  0.42628672    -0.58100
N128        N  0.04474821  0.50064076  0.44712211    -0.03700
N129        N  0.06612560  0.51172106  0.43128491    -0.59300
N130        N  0.04540355  0.47186658  0.44625601    -0.05600
N131        N  0.06715317  0.46285944  0.42951677    -0.58300
N132        N  0.97714635  0.49908085  0.44393232    -0.03300
N133        N  0.95620748  0.50882516  0.42659757    -0.59400
Mn134      Mn  0.00934280  0.52439856  0.46975907     1.18400
C135        C  0.94377778  0.48416672  0.41586601     0.98900
C136        C  0.08001198  0.48798537  0.42036072     0.99500
N137        N  0.97063083  0.49710300  0.56976381    -0.05600
N138        N  0.94857422  0.50685042  0.58546376    -0.61900
N139        N  0.03881020  0.46960068  0.57365849    -0.04400
N140        N  0.05951290  0.46009147  0.59146169    -0.62600
N141        N  0.03785628  0.49835460  0.57377204    -0.05100
N142        N  0.05775499  0.50896944  0.59160699    -0.62200
N143        N  0.97117277  0.46831429  0.56988383    -0.04000
N144        N  0.94941616  0.45798367  0.58580816    -0.62900
Mn145      Mn  0.00514776  0.52287161  0.54824678     1.10700
C146        C  0.93531569  0.48230233  0.59534006     1.00100
C147        C  0.07110041  0.48495771  0.60265924     1.00200
N148        N  0.04426590  0.42279844  0.49528155    -0.05100
N149        N  0.06716760  0.40767522  0.48638518    -0.60500
N150        N  0.97543777  0.42016475  0.52030824    -0.04400
N151        N  0.95407062  0.40284519  0.52896887    -0.57200
N152        N  0.97690044  0.42062164  0.49173085    -0.05800
N153        N  0.95646132  0.40366334  0.48046790    -0.60100
N154        N  0.04262029  0.42229619  0.52385322    -0.04700
N155        N  0.06436259  0.40686525  0.53486638    -0.57300
Mn156      Mn  0.01116865  0.44568055  0.46860066     1.20200
Mn157      Mn  0.00695194  0.44434723  0.54753100     1.10100
Cl158      Cl  0.00806885  0.48425388  0.50849858    -0.85200
C159        C  0.07969095  0.39805343  0.51130381     0.97100
C160        C  0.94243495  0.39257481  0.50393589     0.96900
C161        C  0.49293947  0.78382667  0.23988326     0.03900
C162        C  0.47689027  0.80093073  0.22014696    -0.12300
C163        C  0.46996352  0.79031041  0.19248789     0.01400
C164        C  0.47943585  0.76237832  0.18443263    -0.10800
C165        C  0.49543113  0.74488970  0.20380706     0.03900
C166        C  0.50217846  0.75558480  0.23168896    -0.10200
H167        H  0.47006373  0.82280101  0.22626318     0.09500
H168        H  0.47418218  0.75408175  0.16299344     0.07000
H169        H  0.51492900  0.74233046  0.24654235     0.06800
C170        C  0.46572078  0.21808895  0.20263942     0.03900
C171        C  0.45196274  0.19786005  0.18418682    -0.12300
C172        C  0.44369198  0.17007462  0.19411604     0.01400
C173        C  0.44958012  0.16245656  0.22302129    -0.10800
C174        C  0.46502245  0.18144561  0.24132585     0.03900
C175        C  0.47282971  0.20949085  0.23125024    -0.10200
H176        H  0.44784541  0.20380983  0.16174679     0.09500
H177        H  0.44275703  0.14131995  0.23125006     0.07000
H178        H  0.48382596  0.22455637  0.24570962     0.06800
C179        C  0.48531967  0.22431677  0.80083713     0.03900
C180        C  0.49498125  0.21485089  0.77319529    -0.12300
C181        C  0.48782908  0.18645212  0.76331872     0.01400
C182        C  0.47060226  0.16827725  0.78084458    -0.10800
C183        C  0.46091105  0.17754822  0.80812352     0.03900
C184        C  0.46818379  0.20557084  0.81790069    -0.10200
H185        H  0.50849573  0.22901363  0.75997885     0.09500
H186        H  0.46521468  0.14643068  0.77340659     0.07000
H187        H  0.46075623  0.21275296  0.83909460     0.06800
C188        C  0.51502644  0.77635960  0.75935088     0.03900
C189        C  0.50121825  0.79663908  0.77764742    -0.12300
C190        C  0.49372766  0.78915359  0.80615594     0.01400
C191        C  0.50068362  0.76128332  0.81668977    -0.10800
C192        C  0.51437340  0.74055233  0.79881754     0.03900
C193        C  0.52163190  0.74809026  0.76995134    -0.10200
H194        H  0.49574435  0.81822180  0.76943465     0.09500
H195        H  0.49458358  0.75533872  0.83868877     0.07000
H196        H  0.53178748  0.73209685  0.75584855     0.06800
N197        N  0.36316485  0.02213433  0.98991500    -0.35900
N198        N  0.37293502  0.97553819  0.94789445    -0.56400
N199        N  0.37700916  0.93167180  0.99355611    -0.35900
N200        N  0.36974456  0.97847315  0.03581093    -0.56400
C201        C  0.37020637  0.03761060  0.96581580     0.27700
C202        C  0.36940011  0.03926854  0.01306585     0.27700
C203        C  0.38931093  0.91731138  0.97093787     0.27700
C204        C  0.38674815  0.91864698  0.01814111     0.27700
C205        C  0.36572906  0.99759682  0.92971847     0.36300
C206        C  0.37361440  0.95100824  0.93161857     0.36300
C207        C  0.36301186  0.00211763  0.05204235     0.36300
C208        C  0.36910884  0.95522641  0.05394759     0.36300
C209        C  0.38005040  0.06516626  0.97376992    -0.21200
C210        C  0.37938025  0.06626139  0.00353254    -0.21200
C211        C  0.40647294  0.89453216  0.98129191    -0.21200
C212        C  0.40472364  0.89527166  0.01105620    -0.21200
C213        C  0.36146392  0.98701870  0.90183585    -0.22200
C214        C  0.36645781  0.95742136  0.90304355    -0.22200
C215        C  0.35793110  0.99383143  0.08058507    -0.22200
C216        C  0.36159517  0.96405268  0.08174692    -0.22200
C217        C  0.36844164  0.02743978  0.93684143    -0.17600
C218        C  0.36662576  0.03124093  0.04261115    -0.17600
C219        C  0.37999674  0.92728108  0.04684105    -0.17600
C220        C  0.38541692  0.92417305  0.94120373    -0.17600
H221        H  0.38754803  0.08258807  0.95969976     0.15400
H222        H  0.38604794  0.08472741  0.01663624     0.15400
H223        H  0.41931611  0.87917073  0.96878335     0.15400
H224        H  0.41597252  0.88061392  0.02580033     0.15400
H225        H  0.35676418  0.99959416  0.88243000     0.13600
H226        H  0.36629186  0.94254321  0.88476502     0.13600
H227        H  0.35344093  0.00792413  0.09892264     0.13600
H228        H  0.36052030  0.95065844  0.10113748     0.13600
H229        H  0.35435242  0.00118136  0.99049587     0.26900
H230        H  0.36227694  0.94896746  0.99232149     0.26900
C231        C  0.21442036  0.73704837  0.54277448     0.03900
C232        C  0.19415542  0.75656825  0.55504642    -0.12300
C233        C  0.20059877  0.78620782  0.55845345     0.01400
C234        C  0.22797681  0.79644881  0.54984762    -0.10800
C235        C  0.24924461  0.77744125  0.53859331     0.03900
C236        C  0.24223935  0.74758980  0.53455134    -0.10200
H237        H  0.17304315  0.74857597  0.56202989     0.09500
H238        H  0.23295443  0.81951249  0.55221392     0.07000
H239        H  0.25846345  0.73265939  0.52601767     0.06800
C240        C  0.76344435  0.19171047  0.50628218     0.03900
C241        C  0.77239778  0.22005773  0.49805664    -0.12300
C242        C  0.80132688  0.22904030  0.50350312     0.01400
C243        C  0.82079978  0.20969203  0.51713732    -0.10800
C244        C  0.81196139  0.18165555  0.52553503     0.03900
C245        C  0.78324695  0.17287150  0.52013064    -0.10200
H246        H  0.75715502  0.23483246  0.48758510     0.09500
H247        H  0.84303968  0.21660819  0.52133180     0.07000
H248        H  0.77612739  0.15129365  0.52690176     0.06800
C249        C  0.21658607  0.23318571  0.53781994     0.03900
C250        C  0.24336498  0.22030368  0.53031556    -0.12300
C251        C  0.25039903  0.19231516  0.54093197     0.01400
C252        C  0.23040234  0.17726914  0.55858540    -0.10800
C253        C  0.20351780  0.18993966  0.56595193     0.03900
C254        C  0.19722648  0.21828334  0.55617352    -0.10200
H255        H  0.25824625  0.23162409  0.51589004     0.09500
H256        H  0.23540424  0.15518542  0.56567567     0.07000
H257        H  0.17662938  0.22844370  0.56193631     0.06800
C258        C  0.76443235  0.78035092  0.51121723     0.03900
C259        C  0.77360038  0.75183860  0.50351657    -0.12300
C260        C  0.80320278  0.74368526  0.50674516     0.01400
C261        C  0.82318636  0.76400662  0.51796071    -0.10800
C262        C  0.81423891  0.79213706  0.52597387     0.03900
C263        C  0.78510088  0.80029112  0.52191868    -0.10200
H264        H  0.75790913  0.73615884  0.49537089     0.09500
H265        H  0.84582261  0.75770335  0.52085783     0.07000
H266        H  0.77827726  0.82222631  0.52778758     0.06800
N267        N  0.96308430  0.99024020  0.61796382    -0.35900
N268        N  0.00764168  0.03437512  0.62947076    -0.56400
N269        N  0.05121738  0.98890050  0.63995240    -0.35900
N270        N  0.00690988  0.94487792  0.62559086    -0.56400
C271        C  0.94922981  0.01464165  0.60858087     0.27700
C272        C  0.94889676  0.96704015  0.60642078     0.27700
C273        C  0.06868980  0.01268686  0.63762570     0.27700
C274        C  0.06826049  0.96504241  0.63582198     0.27700
C275        C  0.98417786  0.05212684  0.62706846     0.36300
C276        C  0.03016209  0.05145506  0.63778026     0.36300
C277        C  0.98337088  0.92759450  0.62153100     0.36300
C278        C  0.02922465  0.92696142  0.63274826     0.36300
C279        C  0.92550448  0.00680921  0.59153420    -0.21200
C280        C  0.92525837  0.97681266  0.59023236    -0.21200
C281        C  0.09734213  0.00368884  0.63361877    -0.21200
C282        C  0.09705888  0.97371343  0.63239428    -0.21200
C283        C  0.99172586  0.08059426  0.63406556    -0.22200
C284        C  0.02089083  0.08022249  0.64064228    -0.22200
C285        C  0.99071344  0.89854725  0.62624473    -0.22200
C286        C  0.01980236  0.89813477  0.63327301    -0.22200
C287        C  0.95711316  0.04384102  0.61504564    -0.17600
C288        C  0.95639112  0.93724002  0.61023323    -0.17600
C289        C  0.05873319  0.93562031  0.63425995    -0.17600
C290        C  0.05963830  0.04237772  0.63818797    -0.17600
H291        H  0.91006054  0.02120111  0.58086190     0.15400
H292        H  0.90958232  0.96373008  0.57840338     0.15400
H293        H  0.11650400  0.01729844  0.63124202     0.15400
H294        H  0.11594349  0.95990973  0.62887161     0.15400
H295        H  0.97795267  0.09984575  0.63325276     0.13600
H296        H  0.03391206  0.09921894  0.64586633     0.13600
H297        H  0.97685124  0.87955395  0.62376831     0.13600
H298        H  0.03280893  0.87874289  0.63724388     0.13600
H299        H  0.98067632  0.98948883  0.63211552     0.26900
H300        H  0.02895706  0.98889171  0.64393179     0.26900
N301        N  0.56974411  0.95019035  0.51367192    -0.05400
N302        N  0.58643119  0.92820198  0.52232352    -0.57500
N303        N  0.56738023  0.01857770  0.48645341    -0.05100
N304        N  0.58312861  0.04032659  0.47588913    -0.59600
N305        N  0.56898970  0.01802285  0.51501171    -0.04700
N306        N  0.58603100  0.03934744  0.52435673    -0.57500
N307        N  0.56844401  0.95100099  0.48510492    -0.04300
N308        N  0.58444108  0.92978277  0.47378452    -0.60000
C309        C  0.59555507  0.91570871  0.49723496     0.96800
C310        C  0.59454301  0.05328669  0.49974302     0.96600
N311        N  0.48806487  0.01915557  0.44183636    -0.05600
N312        N  0.47728283  0.04083516  0.42602552    -0.58100
N313        N  0.51716284  0.95159720  0.43917985    -0.03700
N314        N  0.52685840  0.93056798  0.42210355    -0.59300
N315        N  0.48846844  0.95116049  0.44035270    -0.05600
N316        N  0.47817387  0.92964718  0.42408636    -0.58300
N317        N  0.51674309  0.01890599  0.44014133    -0.03300
N318        N  0.52601183  0.04008731  0.42288957    -0.59400
Mn319      Mn  0.54299708  0.98502349  0.46212397     1.18400
C320        C  0.50122602  0.05382850  0.41455000     0.98900
C321        C  0.50242901  0.91674654  0.41298029     0.99500
N322        N  0.52252373  0.01626554  0.56668017    -0.05600
N323        N  0.53233333  0.03735816  0.58384927    -0.61900
N324        N  0.49508623  0.94787578  0.56585382    -0.04400
N325        N  0.48616024  0.92599757  0.58240901    -0.62600
N326        N  0.52377229  0.94837347  0.56468330    -0.05100
N327        N  0.53487046  0.92674302  0.58034015    -0.62200
N328        N  0.49384726  0.01539832  0.56760317    -0.04000
N329        N  0.48367670  0.03579400  0.58515622    -0.62900
Mn330      Mn  0.54701620  0.98329505  0.54063053     1.10700
C331        C  0.50776413  0.04947061  0.59528522     1.00100
C332        C  0.51116407  0.91291928  0.59137464     1.00200
N333        N  0.44152392  0.94992498  0.49121318    -0.05100
N334        N  0.42346494  0.92937516  0.48191212    -0.60500
N335        N  0.44326000  0.01627022  0.52149138    -0.04400
N336        N  0.42721125  0.03722684  0.53308719    -0.57200
N337        N  0.44185803  0.01746590  0.49296533    -0.05800
N338        N  0.42487339  0.03934929  0.48467479    -0.60100
N339        N  0.44379341  0.94883672  0.51971419    -0.04700
N340        N  0.42763090  0.92744578  0.53032061    -0.57300
Mn341      Mn  0.46426556  0.98445168  0.46590907     1.20200
Mn342      Mn  0.46850597  0.98198311  0.54419976     1.10100
Cl343      Cl  0.50568938  0.98367547  0.50321661    -0.85200
C344        C  0.41504550  0.91547534  0.50657539     0.97100
C345        C  0.41577772  0.05155040  0.50992514     0.96900
C346        C  0.65726482  0.86427153  0.47495136    -0.13600
C347        C  0.65540305  0.84239468  0.49640946     0.16800
C348        C  0.63214713  0.84368501  0.51667392     0.03100
C349        C  0.61318450  0.86793917  0.51660291    -0.12100
C350        C  0.61580949  0.89031183  0.49585640    -0.03200
C351        C  0.63767009  0.88797237  0.47432061     0.02300
C352        C  0.68046873  0.82160856  0.50036713     0.09100
N353        N  0.62744243  0.82048717  0.53727532     0.65500
H354        H  0.59583877  0.86908197  0.53256378     0.18400
N355        N  0.64175694  0.91051992  0.45303068     0.76000
H356        H  0.67521856  0.86400088  0.45964534     0.09900
C357        C  0.69324570  0.80591523  0.47704187     0.03600
C358        C  0.71977819  0.79077611  0.48140791    -0.05100
C359        C  0.73353024  0.79037687  0.50870073    -0.23500
C360        C  0.71962354  0.80432002  0.53240138     0.12900
C361        C  0.69382253  0.82017908  0.52781286    -0.12600
N362        N  0.67982961  0.80547659  0.44884491     0.64500
H363        H  0.73026170  0.78011513  0.46316620     0.12400
N364        N  0.73196114  0.80330020  0.56111237     0.61200
H365        H  0.68446881  0.83217958  0.54583529     0.08600
O366        O  0.64443667  0.90387642  0.42655435    -0.40300
O367        O  0.64664629  0.93647853  0.46099299    -0.39500
O368        O  0.61762546  0.82608763  0.56228458    -0.39500
O369        O  0.63075273  0.79413080  0.52975126    -0.37200
O370        O  0.74223198  0.77965472  0.57103342    -0.38100
O371        O  0.73101180  0.82555529  0.57731083    -0.34200
O372        O  0.69533226  0.80688967  0.42621709    -0.35600
O373        O  0.65266063  0.80161624  0.44641505    -0.39900
C374        C  0.87202722  0.82608927  0.57480267    -0.13600
C375        C  0.87380149  0.85445025  0.56326722     0.16800
C376        C  0.85629336  0.86214464  0.53918291     0.03100
C377        C  0.83739539  0.84133181  0.52716709    -0.12100
C378        C  0.83512100  0.81310806  0.53904968    -0.03200
C379        C  0.85262158  0.80548214  0.56323656     0.02300
C380        C  0.89500424  0.87532527  0.57585113     0.09100
N381        N  0.85701582  0.89111215  0.52712651     0.65500
H382        H  0.82407015  0.84734865  0.50862533     0.18400
N383        N  0.85028582  0.77733951  0.57686524     0.76000
H384        H  0.88554858  0.82008639  0.59320969     0.09900
C385        C  0.89313574  0.88429333  0.60513834     0.03600
C386        C  0.91373104  0.90395368  0.61629839    -0.05100
C387        C  0.93604217  0.91491990  0.59859486    -0.23500
C388        C  0.93829842  0.90546572  0.56958405     0.12900
C389        C  0.91785100  0.88577549  0.55843072    -0.12600
N390        N  0.86991125  0.87437594  0.62342823     0.64500
H391        H  0.91192814  0.91127092  0.63861188     0.12400
N392        N  0.96114950  0.91597144  0.55122832     0.61200
H393        H  0.91973221  0.87865266  0.53605659     0.08600
O394        O  0.87301309  0.76289535  0.58286911    -0.40300
O395        O  0.82577460  0.76808681  0.58534335    -0.39500
O396        O  0.85764625  0.89468771  0.49993070    -0.39500
O397        O  0.85444243  0.91313915  0.54345412    -0.37200
O398        O  0.98366426  0.90056620  0.54724540    -0.38100
O399        O  0.95754389  0.93912652  0.53668446    -0.34200
O400        O  0.87559555  0.86134008  0.64695972    -0.35600
O401        O  0.84381051  0.88074634  0.61729366    -0.39900
C402        C  0.30098563  0.13521339  0.50995985    -0.13600
C403        C  0.32761108  0.14223063  0.52340003     0.16800
C404        C  0.32947099  0.16809433  0.54036445     0.03100
C405        C  0.30413611  0.18499113  0.54490492    -0.12100
C406        C  0.27750127  0.17723711  0.53207274    -0.03200
C407        C  0.27617170  0.15265518  0.51374559     0.02300
C408        C  0.35217924  0.12098297  0.52042072     0.09100
N409        N  0.35653647  0.17725484  0.55332790     0.65500
H410        H  0.30502864  0.20402965  0.55888080     0.18400
N411        N  0.24957525  0.14502339  0.49918039     0.76000
H412        H  0.29934459  0.11569836  0.49670961     0.09900
C413        C  0.36583070  0.10787458  0.54478135     0.03600
C414        C  0.38730299  0.08634998  0.54046163    -0.05100
C415        C  0.39455866  0.07622144  0.51251051    -0.23500
C416        C  0.38077035  0.08937355  0.48820315     0.12900
C417        C  0.36039181  0.11191388  0.49244831    -0.12600
N418        N  0.35724748  0.11494560  0.57397523     0.64500
H419        H  0.39736567  0.07641993  0.55935995     0.12400
N420        N  0.38577256  0.07925609  0.45918373     0.61200
H421        H  0.34983722  0.12158754  0.47365214     0.08600
O422        O  0.24061600  0.11892185  0.49942575    -0.40300
O423        O  0.23600425  0.16397564  0.48442013    -0.39500
O424        O  0.38035804  0.17385820  0.53997515    -0.39500
O425        O  0.35650558  0.19082771  0.57720936    -0.37200
O426        O  0.37673989  0.05424149  0.45187727    -0.38100
O427        O  0.39247414  0.09740017  0.43959472    -0.34200
O428        O  0.33057779  0.11596491  0.58077576    -0.35600
O429        O  0.37625694  0.11684464  0.59374886    -0.39900
C430        C  0.13265785  0.15148984  0.58527772    -0.13600
C431        C  0.14130093  0.13423954  0.60902813     0.16800
C432        C  0.16971231  0.13764192  0.62054548     0.03100
C433        C  0.18913736  0.15716195  0.60702445    -0.12100
C434        C  0.18117935  0.17255100  0.58173653    -0.03200
C435        C  0.15233175  0.16995339  0.57107782     0.02300
C436        C  0.12127294  0.11053360  0.61840830     0.09100
N437        N  0.17969178  0.12064183  0.64488748     0.65500
H438        H  0.21109949  0.15930639  0.61549933     0.18400
N439        N  0.14326722  0.18386927  0.54457675     0.76000
H440        H  0.11090107  0.14892951  0.57636222     0.09900
C441        C  0.11038421  0.10764556  0.64708524     0.03600
C442        C  0.09131696  0.08439071  0.65358928    -0.05100
C443        C  0.08183736  0.06518201  0.63177407    -0.23500
C444        C  0.09265545  0.06829241  0.60325207     0.12900
C445        C  0.11273283  0.09032611  0.59714379    -0.12600
N446        N  0.11758137  0.12839926  0.66940146     0.64500
H447        H  0.08270445  0.08204424  0.67538744     0.12400
N448        N  0.08313511  0.04948940  0.58015517     0.61200
H449        H  0.12110395  0.09231318  0.57519732     0.08600
O450        O  0.11887004  0.19668356  0.54330406    -0.40300
O451        O  0.15754955  0.17982338  0.52147323    -0.39500
O452        O  0.17550397  0.09335632  0.64569685    -0.39500
O453        O  0.19528469  0.13239625  0.66423690    -0.37200
O454        O  0.05626205  0.04650312  0.57489818    -0.38100
O455        O  0.10156068  0.03857508  0.56289224    -0.34200
O456        O  0.11897179  0.15537629  0.66362442    -0.35600
O457        O  0.11977487  0.12016112  0.69551466    -0.39900
C458        C  0.64153889  0.11747167  0.47435469    -0.13600
C459        C  0.66126369  0.12023602  0.49761279     0.16800
C460        C  0.65820433  0.10125512  0.52183356     0.03100
C461        C  0.63535786  0.08083798  0.52252738    -0.12100
C462        C  0.61619572  0.07753649  0.49898026    -0.03200
C463        C  0.61948220  0.09613288  0.47461322     0.02300
C464        C  0.68458001  0.14317894  0.49682930     0.09100
N465        N  0.67893086  0.10132812  0.54525778     0.65500
H466        H  0.63361439  0.06629200  0.54105959     0.18400
N467        N  0.60039514  0.09396473  0.45010926     0.76000
H468        H  0.64311651  0.13210781  0.45588469     0.09900
C469        C  0.70391544  0.14626676  0.47298730     0.03600
C470        C  0.72805282  0.16510400  0.47520667    -0.05100
C471        C  0.73365539  0.18051315  0.50092753    -0.23500
C472        C  0.71327119  0.17919691  0.52373175     0.12900
C473        C  0.68861678  0.16127790  0.52122377    -0.12600
N474        N  0.70077083  0.12889665  0.44730550     0.64500
H475        H  0.74388487  0.16571389  0.45772523     0.12400
N476        N  0.71863051  0.19406676  0.55050353     0.61200
H477        H  0.67355159  0.16001401  0.53932173     0.08600
O478        O  0.61035733  0.08622830  0.42573734    -0.40300
O479        O  0.57424296  0.10242106  0.45213116    -0.39500
O480        O  0.67028168  0.09887666  0.57118705    -0.39500
O481        O  0.70594949  0.10038693  0.53995087    -0.37200
O482        O  0.73474046  0.18240349  0.56953767    -0.38100
O483        O  0.70435634  0.21685891  0.55663241    -0.34200
O484        O  0.70006319  0.14111018  0.42269382    -0.35600
O485        O  0.70198452  0.10134483  0.44888764    -0.39900
C486        C  0.85788235  0.11514469  0.54505209    -0.13600
C487        C  0.87388144  0.12582834  0.56869003     0.16800
C488        C  0.86897054  0.15451757  0.57871606     0.03100
C489        C  0.84826419  0.17212499  0.56463733    -0.12100
C490        C  0.83282423  0.16181319  0.54032392    -0.03200
C491        C  0.83760206  0.13287471  0.53059195     0.02300
C492        C  0.89579789  0.10651218  0.58226458     0.09100
N493        N  0.88531709  0.16624185  0.60257248     0.65500
H494        H  0.84457057  0.19420606  0.57238612     0.18400
N495        N  0.82300213  0.12156321  0.50545116     0.76000
H496        H  0.86174902  0.09306240  0.53737102     0.09900
C497        C  0.89128092  0.09363164  0.60983027     0.03600
C498        C  0.91225676  0.07420012  0.62093723    -0.05100
C499        C  0.93728101  0.06733763  0.60483979    -0.23500
C500        C  0.94217725  0.08107011  0.57790242     0.12900
C501        C  0.92143486  0.10048362  0.56679790    -0.12600
N502        N  0.86517781  0.09913164  0.62617222     0.64500
H503        H  0.90849990  0.06344343  0.64159769     0.12400
N504        N  0.96763226  0.07454929  0.56117526     0.61200
H505        H  0.92505911  0.11052497  0.54575230     0.08600
O506        O  0.81123183  0.09661994  0.50634826    -0.40300
O507        O  0.82449441  0.13503001  0.48152919    -0.39500
O508        O  0.91285994  0.16575213  0.60208586    -0.39500
O509        O  0.87237820  0.17969852  0.62274780    -0.37200
O510        O  0.96745237  0.05335220  0.54364516    -0.38100
O511        O  0.98931756  0.09151553  0.56196358    -0.34200
O512        O  0.84049333  0.09738977  0.61410537    -0.35600
O513        O  0.86656505  0.10278370  0.65332043    -0.39900
C514        C  0.31732970  0.80587555  0.50006249    -0.13600
C515        C  0.32887113  0.82440056  0.52159122     0.16800
C516        C  0.31596678  0.82447199  0.54952179     0.03100
C517        C  0.29170550  0.80668901  0.55496439    -0.12100
C518        C  0.27876776  0.78986083  0.53292157    -0.03200
C519        C  0.29231577  0.78879634  0.50541075     0.02300
C520        C  0.35340901  0.84459172  0.51445526     0.09100
N521        N  0.32590693  0.84379594  0.57205801     0.65500
H522        H  0.28152444  0.80757907  0.57620492     0.18400
N523        N  0.28000875  0.77200384  0.48224633     0.76000
H524        H  0.32711281  0.80560534  0.47863375     0.09900
C525        C  0.37963051  0.84457018  0.53073149     0.03600
C526        C  0.39927587  0.86798904  0.52767273    -0.05100
C527        C  0.39396370  0.89089972  0.50800976    -0.23500
C528        C  0.36849229  0.89013238  0.49072072     0.12900
C529        C  0.34865129  0.86691074  0.49394453    -0.12600
N530        N  0.38637979  0.82118602  0.55060200     0.64500
H531        H  0.41908513  0.86819714  0.54054933     0.12400
N532        N  0.36115005  0.91393714  0.47174863     0.61200
H533        H  0.32838514  0.86737384  0.48179100     0.08600
O534        O  0.29508197  0.75250528  0.46992909    -0.40300
O535        O  0.25520497  0.77854039  0.47219167    -0.39500
O536        O  0.33002936  0.87057805  0.56670492    -0.39500
O537        O  0.32661859  0.83508267  0.59809826    -0.37200
O538        O  0.35303791  0.90886771  0.44603520    -0.38100
O539        O  0.35863955  0.93949157  0.48184384    -0.34200
O540        O  0.37970423  0.79512460  0.54444980    -0.35600
O541        O  0.40111812  0.82614636  0.57325107    -0.39900
C542        C  0.13041812  0.82661983  0.57747522    -0.13600
C543        C  0.14071485  0.84722426  0.59755996     0.16800
C544        C  0.17019462  0.84639386  0.60620188     0.03100
C545        C  0.18899524  0.82573431  0.59379851    -0.12100
C546        C  0.17923706  0.80646740  0.57205311    -0.03200
C547        C  0.14940109  0.80682475  0.56402194     0.02300
C548        C  0.12067234  0.87059201  0.60747040     0.09100
N549        N  0.18168430  0.86726223  0.62635901     0.65500
H550        H  0.21164324  0.82534132  0.60059494     0.18400
N551        N  0.13829762  0.78862706  0.54116786     0.76000
H552        H  0.10769154  0.82713051  0.57093051     0.09900
C553        C  0.10655396  0.88881302  0.58698316     0.03600
C554        C  0.08635292  0.90952406  0.59651346    -0.05100
C555        C  0.08065621  0.91326265  0.62613320    -0.23500
C556        C  0.09498584  0.89559354  0.64674076     0.12900
C557        C  0.11463005  0.87403919  0.63724179    -0.12600
N558        N  0.11288831  0.88689083  0.55650696     0.64500
H559        H  0.07535386  0.92331694  0.58073378     0.12400
N560        N  0.08948774  0.89914374  0.67712283     0.61200
H561        H  0.12523998  0.86001707  0.65306145     0.08600
O562        O  0.15077684  0.78817220  0.51672326    -0.40300
O563        O  0.11409079  0.77582096  0.54419959    -0.39500
O564        O  0.19536001  0.85861529  0.64859186    -0.39500
O565        O  0.18108972  0.89421024  0.62031577    -0.37200
O566        O  0.09591245  0.92285151  0.68960036    -0.38100
O567        O  0.07889693  0.87831523  0.69171629    -0.34200
O568        O  0.09237933  0.88713605  0.53817996    -0.35600
O569        O  0.13897624  0.88756755  0.54772185    -0.39900
C570        C  0.49920165  0.79921774  0.68239864    -0.13600
C571        C  0.52104205  0.82032294  0.67775523     0.16800
C572        C  0.54381528  0.82293024  0.69851424     0.03100
C573        C  0.54345074  0.80529125  0.72361458    -0.12100
C574        C  0.52062723  0.78558277  0.72893651    -0.03200
C575        C  0.49884831  0.78190452  0.70764804     0.02300
C576        C  0.51793369  0.84116119  0.65278932     0.09100
N577        N  0.56604088  0.84491463  0.69586021     0.65500
H578        H  0.55965156  0.80892340  0.74039245     0.18400
N579        N  0.47501293  0.76228864  0.71253688     0.76000
H580        H  0.48171022  0.79687247  0.66671580     0.09900
C581        C  0.54070153  0.84673435  0.63268947     0.03600
C582        C  0.53799945  0.87034071  0.61305315    -0.05100
C583        C  0.51264431  0.88773341  0.61202895    -0.23500
C584        C  0.48926644  0.88071791  0.63082891     0.12900
C585        C  0.49216228  0.85772464  0.65083617    -0.12600
N586        N  0.56644229  0.82867224  0.63181377     0.64500
H587        H  0.55567319  0.87485507  0.59808223     0.12400
N588        N  0.46301729  0.89771633  0.63120408     0.61200
H589        H  0.47455425  0.85373456  0.66605117     0.08600
O590        O  0.44908770  0.77162687  0.71184204    -0.40300
O591        O  0.47980626  0.73547075  0.71709803    -0.39500
O592        O  0.55923005  0.87107498  0.69012926    -0.39500
O593        O  0.59200781  0.83905505  0.70301389    -0.37200
O594        O  0.43880942  0.88553287  0.62631540    -0.38100
O595        O  0.46348210  0.92350858  0.64096536    -0.34200
O596        O  0.56474254  0.80153845  0.63673362    -0.35600
O597        O  0.59051604  0.83927030  0.62364147    -0.39900
C598        C  0.43488733  0.84019496  0.83480459    -0.13600
C599        C  0.44685085  0.84843680  0.86157107     0.16800
C600        C  0.47456004  0.83778597  0.86981434     0.03100
C601        C  0.48963177  0.81877166  0.85122241    -0.12100
C602        C  0.47740676  0.80994795  0.82467977    -0.03200
C603        C  0.44976241  0.82091872  0.81630935     0.02300
C604        C  0.43020595  0.86855198  0.88046011     0.09100
N605        N  0.48734859  0.84565813  0.89714733     0.65500
H606        H  0.51083787  0.81046804  0.85768997     0.18400
N607        N  0.43611771  0.81200139  0.78967129     0.76000
H608        H  0.41360822  0.84845260  0.82852203     0.09900
C609        C  0.43905172  0.89780892  0.88453002     0.03600
C610        C  0.42370179  0.91549348  0.90409335    -0.05100
C611        C  0.39925206  0.90485027  0.91912349    -0.23500
C612        C  0.39011196  0.87571826  0.91466298     0.12900
C613        C  0.40584947  0.85779409  0.89551196    -0.12600
N614        N  0.46341041  0.90982762  0.86896262     0.64500
H615        H  0.43086080  0.93779819  0.90767070     0.12400
N616        N  0.36531660  0.86401154  0.92971206     0.61200
H617        H  0.39914089  0.83528620  0.89237582     0.08600
O618        O  0.42288336  0.83055276  0.77413280    -0.40300
O619        O  0.43462570  0.78522366  0.78313718    -0.39500
O620        O  0.47336714  0.84178408  0.92046273    -0.39500
O621        O  0.51354077  0.85410216  0.89826354    -0.37200
O622        O  0.34171963  0.87826287  0.93075200    -0.38100
O623        O  0.36638278  0.83861921  0.94051141    -0.34200
O624        O  0.46569212  0.90599082  0.84190008    -0.35600
O625        O  0.48095459  0.92687481  0.88159505    -0.39900
C626        C  0.52170031  0.13419475  0.70924367    -0.13600
C627        C  0.50646459  0.14113394  0.68363008     0.16800
C628        C  0.48775139  0.16590373  0.68360399     0.03100
C629        C  0.48370461  0.18207690  0.70938428    -0.12100
C630        C  0.49814334  0.17431044  0.73515866    -0.03200
C631        C  0.51774191  0.15047989  0.73474516     0.02300
C632        C  0.50733565  0.11990566  0.65883232     0.09100
N633        N  0.47213684  0.17437116  0.65786908     0.65500
H634        H  0.46825796  0.20005355  0.70964594     0.18400
N635        N  0.53239131  0.14145830  0.76069303     0.76000
H636        H  0.53568085  0.11505605  0.70990404     0.09900
C637        C  0.53386450  0.10952457  0.64687450     0.03600
C638        C  0.53348886  0.08662054  0.62635222    -0.05100
C639        C  0.50717332  0.07381010  0.61708476    -0.23500
C640        C  0.48069460  0.08462242  0.62889642     0.12900
C641        C  0.48108268  0.10733926  0.64935868    -0.12600
N642        N  0.56128687  0.12222028  0.65506213     0.64500
H643        H  0.55398381  0.07898078  0.61740213     0.12400
N644        N  0.45311473  0.07223020  0.62122982     0.61200
H645        H  0.46061217  0.11443900  0.65882505     0.08600
O646        O  0.52396345  0.11891205  0.77413144    -0.40300
O647        O  0.55571064  0.15397038  0.76824934    -0.39500
O648        O  0.44595685  0.18285083  0.65956917    -0.39500
O649        O  0.48492814  0.17499056  0.63358803    -0.37200
O650        O  0.44507929  0.04855610  0.63288479    -0.38100
O651        O  0.43480692  0.08741727  0.60731280    -0.34200
O652        O  0.58334733  0.10612355  0.65905562    -0.35600
O653        O  0.56408672  0.14967159  0.65626803    -0.39900
C654        C  0.43833225  0.12872152  0.87091260    -0.13600
C655        C  0.41395659  0.11456013  0.85906747     0.16800
C656        C  0.40359337  0.12285206  0.83140895     0.03100
C657        C  0.41871674  0.14421535  0.81556184    -0.12100
C658        C  0.44413527  0.15719572  0.82671390    -0.03200
C659        C  0.45369777  0.14972571  0.85495494     0.02300
C660        C  0.40051806  0.09046214  0.87574347     0.09100
N661        N  0.37852164  0.10909958  0.81874378     0.65500
H662        H  0.41112432  0.15009726  0.79401760     0.18400
N663        N  0.47972646  0.16205157  0.86712828     0.76000
H664        H  0.44616032  0.12248006  0.89228077     0.09900
C665        C  0.41654634  0.06478865  0.88188723     0.03600
C666        C  0.40479835  0.04395391  0.90078223    -0.05100
C667        C  0.37714937  0.04786892  0.91324175    -0.23500
C668        C  0.36057372  0.07291231  0.90613298     0.12900
C669        C  0.37254554  0.09415760  0.88760506    -0.12600
N670        N  0.44495114  0.05990915  0.86958440     0.64500
H671        H  0.41762170  0.02480779  0.90641229     0.12400
N672        N  0.33222185  0.07747382  0.91847623     0.61200
H673        H  0.36027886  0.11389670  0.88288694     0.08600
O674        O  0.50369494  0.15982244  0.85379868    -0.40300
O675        O  0.47941854  0.17228598  0.89258614    -0.39500
O676        O  0.35906607  0.12446595  0.80666057    -0.39500
O677        O  0.37694126  0.08155792  0.81738686    -0.37200
O678        O  0.31334966  0.05739934  0.91761351    -0.38100
O679        O  0.32553923  0.10200425  0.92916670    -0.34200
O680        O  0.46504517  0.04882860  0.88484509    -0.35600
O681        O  0.44940045  0.06447322  0.84288920    -0.39900
C682        C  0.48157344  0.12369438  0.37393730    -0.13600
C683        C  0.49195499  0.11724465  0.34590362     0.16800
C684        C  0.50781193  0.09097701  0.34157743     0.03100
C685        C  0.51222251  0.07171287  0.36498210    -0.12100
C686        C  0.50015476  0.07732264  0.39240302    -0.03200
C687        C  0.48523214  0.10396662  0.39719896     0.02300
C688        C  0.48540144  0.13769818  0.32132756     0.09100
N689        N  0.51797656  0.08257655  0.31329188     0.65500
H690        H  0.52349615  0.05119383  0.36121595     0.18400
N691        N  0.47426180  0.11157879  0.42549513     0.76000
H692        H  0.47035860  0.14423454  0.37765802     0.09900
C693        C  0.45643964  0.14650241  0.31499259     0.03600
C694        C  0.45067675  0.16310121  0.28998781    -0.05100
C695        C  0.47304136  0.17072447  0.27066698    -0.23500
C696        C  0.50211353  0.16354312  0.27774628     0.12900
C697        C  0.50811224  0.14761502  0.30321048    -0.12600
N698        N  0.43235236  0.13719575  0.33255617     0.64500
H699        H  0.42825967  0.16839859  0.28454082     0.12400
N700        N  0.52541608  0.17016447  0.25814568     0.61200
H701        H  0.53047752  0.14157215  0.30802250     0.08600
O702        O  0.45225065  0.12805207  0.42789772    -0.40300
O703        O  0.48831461  0.10460273  0.44808303    -0.39500
O704        O  0.54325551  0.07198339  0.31029062    -0.39500
O705        O  0.50060226  0.08231312  0.29198988    -0.37200
O706        O  0.54516841  0.18783880  0.26559899    -0.38100
O707        O  0.52782258  0.15623608  0.23460535    -0.34200
O708        O  0.41372791  0.15565024  0.34110018    -0.35600
O709        O  0.42779391  0.11027885  0.33671765    -0.39900
C710        C  0.42370529  0.10094243  0.15229617    -0.13600
C711        C  0.40389257  0.11202521  0.13175692     0.16800
C712        C  0.39510409  0.14156644  0.13364345     0.03100
C713        C  0.40728870  0.15956778  0.15508442    -0.12100
C714        C  0.42919171  0.14916308  0.17394323    -0.03200
C715        C  0.43726448  0.11926016  0.17255171     0.02300
C716        C  0.39411208  0.09257727  0.10779705     0.09100
N717        N  0.37508629  0.15403493  0.11311990     0.65500
H718        H  0.40041236  0.18223619  0.15620916     0.18400
N719        N  0.46056045  0.10750268  0.18987499     0.76000
H720        H  0.43019122  0.07814725  0.15127025     0.09900
C721        C  0.41474361  0.07690487  0.09097033     0.03600
C722        C  0.40500040  0.05674432  0.07035406    -0.05100
C723        C  0.37520786  0.05300801  0.06487305    -0.23500
C724        C  0.35462301  0.06935192  0.08062442     0.12900
C725        C  0.36412560  0.08851882  0.10244231    -0.12600
N726        N  0.44558019  0.08170642  0.09403330     0.64500
H727        H  0.42079590  0.04440391  0.05780944     0.12400
N728        N  0.32415881  0.06662477  0.07459556     0.61200
H729        H  0.34808989  0.10028521  0.11519180     0.08600
O730        O  0.48532144  0.11958048  0.18967221    -0.40300
O731        O  0.45766923  0.08288979  0.20202821    -0.39500
O732        O  0.35330085  0.16842964  0.12193983    -0.39500
O733        O  0.38082855  0.15343679  0.08630364    -0.37200
O734        O  0.31355449  0.07795241  0.05189219    -0.38100
O735        O  0.30792170  0.05234011  0.09158588    -0.34200
O736        O  0.46310100  0.06038866  0.09289846    -0.35600
O737        O  0.45558971  0.10742020  0.09484063    -0.39900
C738        C  0.52766860  0.85897958  0.35864556    -0.13600
C739        C  0.50156189  0.85262854  0.34407791     0.16800
C740        C  0.47532078  0.86540544  0.35397767     0.03100
C741        C  0.47587761  0.88495541  0.37752560    -0.12100
C742        C  0.50223967  0.89249040  0.39129507    -0.03200
C743        C  0.52828522  0.87837935  0.38226082     0.02300
C744        C  0.50219169  0.83292927  0.31834105     0.09100
N745        N  0.44821315  0.85998855  0.33937675     0.65500
H746        H  0.45570541  0.89542309  0.38408402     0.18400
N747        N  0.55545800  0.88303971  0.39700341     0.76000
H748        H  0.54775027  0.84857654  0.35168220     0.09900
C749        C  0.51876608  0.84011698  0.29348631     0.03600
C750        C  0.51768053  0.82198956  0.26896200    -0.05100
C751        C  0.50011974  0.79684546  0.26849268    -0.23500
C752        C  0.48478827  0.78877266  0.29383441     0.12900
C753        C  0.48584246  0.80692640  0.31844843    -0.12600
N754        N  0.53507965  0.86681629  0.29204543     0.64500
H755        H  0.52901810  0.82866980  0.24938022     0.12400
N756        N  0.46689318  0.76311458  0.29435262     0.61200
H757        H  0.47349206  0.80095313  0.33763045     0.08600
O758        O  0.57826405  0.88846075  0.38260404    -0.40300
O759        O  0.55757636  0.87738952  0.42378702    -0.39500
O760        O  0.42583153  0.85308106  0.35379623    -0.39500
O761        O  0.44601811  0.86422971  0.31234672    -0.37200
O762        O  0.47838992  0.73819813  0.29129399    -0.38100
O763        O  0.44045011  0.76496961  0.30178548    -0.34200
O764        O  0.56135826  0.86643563  0.28385347    -0.35600
O765        O  0.52252616  0.89105113  0.29626184    -0.39900
C766        C  0.41348407  0.84088230  0.15830819    -0.13600
C767        C  0.42638345  0.84645353  0.13125681     0.16800
C768        C  0.45314611  0.83302007  0.12419162     0.03100
C769        C  0.46674111  0.81454597  0.14433207    -0.12100
C770        C  0.45393735  0.80888792  0.17145025    -0.03200
C771        C  0.42686154  0.82202232  0.17841211     0.02300
C772        C  0.41283252  0.86787815  0.11127699     0.09100
N773        N  0.46667845  0.83795737  0.09658808     0.65500
H774        H  0.48755128  0.80468623  0.13884990     0.18400
N775        N  0.41254652  0.81608401  0.20549499     0.76000
H776        H  0.39293387  0.85126811  0.16377864     0.09900
C777        C  0.38567002  0.86250029  0.09791165     0.03600
C778        C  0.37448491  0.88264623  0.07775569    -0.05100
C779        C  0.39007744  0.90809577  0.07087076    -0.23500
C780        C  0.41657316  0.91403756  0.08521673     0.12900
C781        C  0.42771425  0.89397155  0.10528274    -0.12600
N782        N  0.36996587  0.83610085  0.10360713     0.64500
H783        H  0.35414425  0.87797152  0.06668561     0.12400
N784        N  0.43291555  0.93983207  0.07865610     0.61200
H785        H  0.44841526  0.89843410  0.11577933     0.08600
O786        O  0.40886985  0.79001954  0.21384187    -0.40300
O787        O  0.40146128  0.83673278  0.21997513    -0.39500
O788        O  0.49211667  0.84842720  0.09530705    -0.39500
O789        O  0.45390667  0.83028591  0.07352451    -0.37200
O790        O  0.45018997  0.94001891  0.05731727    -0.38100
O791        O  0.43248973  0.96122693  0.09594935    -0.34200
O792        O  0.34520612  0.83719468  0.11554817    -0.35600
O793        O  0.37963209  0.81195492  0.09442499    -0.39900
C794        C  0.88698624  0.33329906  0.52291863    -0.13600
C795        C  0.86934835  0.33318639  0.49801041     0.16800
C796        C  0.87530769  0.35314700  0.47532597     0.03100
C797        C  0.89965915  0.37174474  0.47755065    -0.12100
C798        C  0.91765051  0.37161818  0.50230865    -0.03200
C799        C  0.91115797  0.35199061  0.52523391     0.02300
C800        C  0.84777353  0.30915241  0.49471566     0.09100
N801        N  0.85663148  0.35507679  0.45028098     0.65500
H802        H  0.90423451  0.38687271  0.46005583     0.18400
N803        N  0.92996727  0.34913509  0.55000318     0.76000
H804        H  0.88292104  0.31747162  0.54001115     0.09900
C805        C  0.85303084  0.28589890  0.47524709     0.03600
C806        C  0.83523139  0.26098261  0.47604956    -0.05100
C807        C  0.81236704  0.25861468  0.49620493    -0.23500
C808        C  0.80565008  0.28279689  0.51394545     0.12900
C809        C  0.82342700  0.30780778  0.51319722    -0.12600
N810        N  0.87799481  0.28605341  0.45655364     0.64500
H811        H  0.84085866  0.24233124  0.46263741     0.12400
N812        N  0.78246097  0.28119114  0.53461026     0.61200
H813        H  0.81911891  0.32561281  0.52812133     0.08600
O814        O  0.95668150  0.34336092  0.54643576    -0.40300
O815        O  0.91915414  0.34740797  0.57516787    -0.39500
O816        O  0.82929654  0.35309080  0.45310509    -0.39500
O817        O  0.86706801  0.36181668  0.42579104    -0.37200
O818        O  0.78688528  0.26997604  0.55929652    -0.38100
O819        O  0.75811475  0.29280642  0.52893510    -0.34200
O820        O  0.90333898  0.28533824  0.46730019    -0.35600
O821        O  0.87473612  0.28325240  0.42947263    -0.39900
C822        C  0.85239909  0.68319265  0.47951079    -0.13600
C823        C  0.84551830  0.66018109  0.49857802     0.16800
C824        C  0.82150435  0.66357006  0.51771345     0.03100
C825        C  0.80624700  0.69039341  0.51848224    -0.12100
C826        C  0.81413202  0.71374000  0.50026968    -0.03200
C827        C  0.83685876  0.70960344  0.48003582     0.02300
C828        C  0.86617079  0.63485605  0.50069688     0.09100
N829        N  0.81288434  0.64033405  0.53691499     0.65500
H830        H  0.78895629  0.69349679  0.53423693     0.18400
N831        N  0.84527652  0.73268517  0.46079134     0.76000
H832        H  0.87084235  0.68115094  0.46491943     0.09900
C833        C  0.87574846  0.61934889  0.47584427     0.03600
C834        C  0.89911864  0.59943589  0.47828844    -0.05100
C835        C  0.91282136  0.59390467  0.50510784    -0.23500
C836        C  0.90225072  0.60848737  0.53007264     0.12900
C837        C  0.87936421  0.62876148  0.52760476    -0.12600
N838        N  0.86182898  0.62335099  0.44812476     0.64500
H839        H  0.90642042  0.58793333  0.45904929     0.12400
N840        N  0.91543188  0.60421863  0.55791651     0.61200
H841        H  0.87272612  0.64082841  0.54675279     0.08600
O842        O  0.82967517  0.73858144  0.43894624    -0.40300
O843        O  0.86988672  0.74471721  0.46359983    -0.39500
O844        O  0.80451624  0.64598820  0.56243102    -0.39500
O845        O  0.81193420  0.61426908  0.52791290    -0.37200
O846        O  0.93841583  0.61794161  0.56436673    -0.38100
O847        O  0.90187284  0.59035183  0.57741063    -0.34200
O848        O  0.87664974  0.62233890  0.42502729    -0.35600
O849        O  0.83438958  0.62531648  0.44645875    -0.39900
C850        C  0.14581208  0.35179896  0.49050706    -0.13600
C851        C  0.14810055  0.33348843  0.51488465     0.16800
C852        C  0.12897824  0.33757356  0.53853640     0.03100
C853        C  0.10799067  0.35984163  0.53740586    -0.12100
C854        C  0.10496872  0.37772874  0.51272563    -0.03200
C855        C  0.12466849  0.37410743  0.48928226     0.02300
C856        C  0.17062291  0.31020670  0.51586900     0.09100
N857        N  0.12965662  0.31830892  0.56319597     0.65500
H858        H  0.09292594  0.36210070  0.55540524     0.18400
N859        N  0.12419197  0.39339359  0.46464745     0.76000
H860        H  0.16090346  0.34903403  0.47259451     0.09900
C861        C  0.16895639  0.28560312  0.49751728     0.03600
C862        C  0.18726724  0.26153852  0.50265350    -0.05100
C863        C  0.20707074  0.26162312  0.52594347    -0.23500
C864        C  0.21060807  0.28720868  0.54258925     0.12900
C865        C  0.19222640  0.31125138  0.53748808    -0.12600
N866        N  0.14680489  0.28351899  0.47566710     0.64500
H867        H  0.18403263  0.24165740  0.49024778     0.12400
N868        N  0.23130946  0.28816322  0.56597834     0.61200
H869        H  0.19388081  0.33038518  0.55126918     0.08600
O870        O  0.12699093  0.38321198  0.43931867    -0.40300
O871        O  0.12506357  0.42074909  0.46836662    -0.39500
O872        O  0.12864339  0.32862865  0.58859598    -0.39500
O873        O  0.12861808  0.29093458  0.55964234    -0.37200
O874        O  0.25692729  0.27865234  0.56232505    -0.38100
O875        O  0.22453999  0.29983439  0.58988572    -0.34200
O876        O  0.15382368  0.27922858  0.44950856    -0.35600
O877        O  0.12021460  0.28322463  0.48282400    -0.39900
C878        C  0.14621065  0.60765016  0.54302409    -0.13600
C879        C  0.14863530  0.63178522  0.52415598     0.16800
C880        C  0.12924608  0.63370426  0.50018028     0.03100
C881        C  0.10781081  0.61212533  0.49619528    -0.12100
C882        C  0.10400567  0.58945178  0.51639781    -0.03200
C883        C  0.12384533  0.58688421  0.53983059     0.02300
C884        C  0.17049736  0.65531494  0.53051447     0.09100
N885        N  0.12953208  0.65836771  0.48082951     0.65500
H886        H  0.09252504  0.61442483  0.47835256     0.18400
N887        N  0.12173311  0.56336473  0.56047052     0.76000
H888        H  0.16154611  0.60521388  0.56079273     0.09900
C889        C  0.17265086  0.66810006  0.55846016     0.03600
C890        C  0.19059296  0.69251585  0.56263615    -0.05100
C891        C  0.20509864  0.70598362  0.53929166    -0.23500
C892        C  0.20510487  0.69182398  0.51209739     0.12900
C893        C  0.18844808  0.66630097  0.50814233    -0.12600
N894        N  0.15489675  0.65843565  0.58227061     0.64500
H895        H  0.19084793  0.70285969  0.58381863     0.12400
N896        N  0.21958731  0.70449319  0.48765339     0.61200
H897        H  0.18798965  0.65618235  0.48687436     0.08600
O898        O  0.12563107  0.56821356  0.58719480    -0.40300
O899        O  0.11888337  0.53731475  0.55183785    -0.39500
O900        O  0.12699222  0.65448944  0.45379280    -0.39500
O901        O  0.12826594  0.68403959  0.49085414    -0.37200
O902        O  0.24314496  0.69347970  0.47859159    -0.38100
O903        O  0.20694758  0.72402512  0.47284814    -0.34200
O904        O  0.16622906  0.65457759  0.60699513    -0.35600
O905        O  0.12746139  0.65800286  0.57977477    -0.39900
C906        C  0.85419793  0.47764475  0.71146689    -0.13600
C907        C  0.84513295  0.48845458  0.68437421     0.16800
C908        C  0.81782011  0.50309619  0.68234578     0.03100
C909        C  0.80170113  0.50871434  0.70790756    -0.12100
C910        C  0.81179048  0.49919335  0.73510405    -0.03200
C911        C  0.83779457  0.48273309  0.73659183     0.02300
C912        C  0.86626559  0.48691002  0.65966327     0.09100
N913        N  0.80667029  0.51303374  0.65481419     0.65500
H914        H  0.78173594  0.52139312  0.70674614     0.18400
N915        N  0.84863636  0.47248388  0.76392128     0.76000
H916        H  0.87491746  0.46632216  0.71338001     0.09900
C917        C  0.87688357  0.51246091  0.64581479     0.03600
C918        C  0.89814868  0.50998798  0.62394072    -0.05100
C919        C  0.91020886  0.48278189  0.61611247    -0.23500
C920        C  0.89927451  0.45730334  0.62975243     0.12900
C921        C  0.87756444  0.45959270  0.65121391    -0.12600
N922        N  0.86765375  0.54116300  0.65470960     0.64500
H923        H  0.90633534  0.52982821  0.61396454     0.12400
N924        N  0.91053980  0.42899578  0.62281971     0.61200
H925        H  0.86977767  0.43986204  0.66174147     0.08600
O926        O  0.87126059  0.48374498  0.77480966    -0.40300
O927        O  0.83730365  0.45031649  0.77574293    -0.39500
O928        O  0.81070334  0.49807908  0.63212220    -0.39500
O929        O  0.79090710  0.53568161  0.65341008    -0.37200
O930        O  0.92880828  0.41693934  0.63953465    -0.38100
O931        O  0.89926791  0.41444941  0.60242343    -0.34200
O932        O  0.86652329  0.54766689  0.68133843    -0.35600
O933        O  0.86426328  0.56113181  0.63601210    -0.39900
C934        C  0.84026458  0.59222307  0.86292933    -0.13600
C935        C  0.87026193  0.58784804  0.85849979     0.16800
C936        C  0.87953872  0.57041801  0.83501658     0.03100
C937        C  0.85885045  0.55551086  0.81833313    -0.12100
C938        C  0.82864918  0.55904148  0.82295625    -0.03200
C939        C  0.81934584  0.57878916  0.84493781     0.02300
C940        C  0.89152768  0.59768826  0.88084173     0.09100
N941        N  0.90998610  0.56738714  0.82814186     0.65500
H942        H  0.86674235  0.54057940  0.80189891     0.18400
N943        N  0.78904433  0.58570400  0.84919161     0.76000
H944        H  0.83306710  0.60584965  0.88079329     0.09900
C945        C  0.89350843  0.62706493  0.89014390     0.03600
C946        C  0.91321411  0.63456317  0.91233201    -0.05100
C947        C  0.93127590  0.61324240  0.92498266    -0.23500
C948        C  0.92926765  0.58397702  0.91568946     0.12900
C949        C  0.90945468  0.57648091  0.89391316    -0.12600
N950        N  0.87650952  0.64954794  0.87657564     0.64500
H951        H  0.91491938  0.65713318  0.91929931     0.12400
N952        N  0.94701673  0.56157118  0.92845241     0.61200
H953        H  0.90770715  0.55374923  0.88745545     0.08600
O954        O  0.77280604  0.59105027  0.82764883    -0.40300
O955        O  0.77910263  0.58926206  0.87452944    -0.39500
O956        O  0.92006501  0.54305499  0.81989517    -0.39500
O957        O  0.92641004  0.58955199  0.82809216    -0.37200
O958        O  0.96408904  0.54684589  0.91267993    -0.38100
O959        O  0.94225517  0.55338927  0.95421723    -0.34200
O960        O  0.86054301  0.66601707  0.89179136    -0.35600
O961        O  0.87983937  0.65499175  0.84988762    -0.39900
C962        C  0.16950726  0.47003104  0.70703063    -0.13600
C963        C  0.16698790  0.49191527  0.68561553     0.16800
C964        C  0.18350276  0.51789254  0.68870177     0.03100
C965        C  0.19984777  0.52248386  0.71412757    -0.12100
C966        C  0.20063526  0.50150880  0.73636776    -0.03200
C967        C  0.18595757  0.47469275  0.73242810     0.02300
C968        C  0.14337055  0.48969039  0.66324847     0.09100
N969        N  0.18303339  0.54016780  0.66664709     0.65500
H970        H  0.21117867  0.54306741  0.71709379     0.18400
N971        N  0.18574658  0.45294269  0.75488517     0.76000
H972        H  0.15672678  0.45019213  0.70516034     0.09900
C973        C  0.14015025  0.46517718  0.64479667     0.03600
C974        C  0.11592157  0.46351828  0.62591602    -0.05100
C975        C  0.09499598  0.48606810  0.62466175    -0.23500
C976        C  0.09798637  0.51019551  0.64366449     0.12900
C977        C  0.12206362  0.51179170  0.66239877    -0.12600
N978        N  0.16169388  0.44236603  0.64428629     0.64500
H979        H  0.11401981  0.44499377  0.61137621     0.12400
N980        N  0.07596163  0.53245538  0.64551367     0.61200
H981        H  0.12356976  0.53005031  0.67732631     0.08600
O982        O  0.17532235  0.45888008  0.77956930    -0.46000
O983        O  0.19284305  0.42690515  0.74909245    -0.39500
O984        O  0.18261646  0.56687265  0.67362537    -0.39500
O985        O  0.18466736  0.53327402  0.64014192    -0.37200
O986        O  0.04985159  0.52543651  0.65078513    -0.38100
O987        O  0.08320343  0.55907802  0.64647459    -0.34200
O988        O  0.15395128  0.41590747  0.64289712    -0.35600
O989        O  0.18848264  0.44865337  0.64295304    -0.39900
C990        C  0.15919979  0.55795772  0.87697108    -0.13600
C991        C  0.14252815  0.58114512  0.86587985     0.16800
C992        C  0.14672560  0.59048046  0.83702400     0.03100
C993        C  0.16710021  0.57593542  0.81950790    -0.12100
C994        C  0.18297961  0.55185576  0.83016457    -0.03200
C995        C  0.17912073  0.54296490  0.85938912     0.02300
C996        C  0.11994629  0.59434704  0.88457454     0.09100
N997        N  0.12980810  0.61397083  0.82500160     0.65500
H998        H  0.17010648  0.58306125  0.79723861     0.18400
N999        N  0.19419830  0.51807789  0.87118796     0.76000
H1000       H  0.15585767  0.55078612  0.89918635     0.09900
C1001       C  0.09530751  0.57794984  0.89271943     0.03600
C1002       C  0.07529891  0.58973974  0.91230173    -0.05100
C1003       C  0.07904835  0.61796708  0.92359105    -0.23500
C1004       C  0.10332670  0.63485646  0.91486761     0.12900
C1005       C  0.12376438  0.62270504  0.89557380    -0.12600
N1006       N  0.09047881  0.54923202  0.88129940     0.64500
H1007       H  0.05678829  0.57664429  0.91906785     0.12400
N1008       N  0.10781097  0.66381961  0.92596126     0.61200
H1009       H  0.14277980  0.63526905  0.88926807     0.08600
O1010       O  0.20588741  0.51960010  0.89598617    -0.40300
O1011       O  0.19344805  0.49377817  0.85819777    -0.39500
O1012       O  0.14227459  0.63454954  0.81157478    -0.39500
O1013       O  0.10228571  0.61319942  0.82599841    -0.37200
O1014       O  0.13299194  0.67193786  0.93360620    -0.38100
O1015       O  0.08700396  0.68194413  0.92651968    -0.34200
O1016       O  0.08743887  0.52776197  0.89830636    -0.35600
O1017       O  0.08722530  0.54561945  0.85430727    -0.39900
C1018       C  0.88519096  0.45769530  0.36289033    -0.13600
C1019       C  0.88144815  0.48242995  0.34515842     0.16800
C1020       C  0.89679930  0.50827789  0.35197910     0.03100
C1021       C  0.91587734  0.50880433  0.37590983    -0.12100
C1022       C  0.92042402  0.48380281  0.39318961    -0.03200
C1023       C  0.90407056  0.45828449  0.38700701     0.02300
C1024       C  0.86131596  0.48117447  0.31970031     0.09100
N1025       N  0.89432880  0.53371743  0.33391640     0.65500
H1026       H  0.92821149  0.52855040  0.38015346     0.18400
N1027       N  0.90524749  0.43335371  0.40583374     0.76000
H1028       H  0.87287927  0.43800400  0.35830332     0.09900
C1029       C  0.86766302  0.46346637  0.29543593     0.03600
C1030       C  0.84960593  0.46463625  0.27075598    -0.05100
C1031       C  0.82514574  0.48326090  0.26965947    -0.23500
C1032       C  0.81779627  0.49957397  0.29463387     0.12900
C1033       C  0.83602783  0.49860752  0.31925162    -0.12600
N1034       N  0.89361522  0.44598655  0.29467614     0.64500
H1035       H  0.85589621  0.45252242  0.25151675     0.12400
N1036       N  0.79285949  0.51847505  0.29468093     0.61200
H1037       H  0.83072713  0.51194900  0.33797063     0.08600
O1038       O  0.91025434  0.40825297  0.39556459    -0.40300
O1039       O  0.89748682  0.43588134  0.43202206    -0.39500
O1040       O  0.88854240  0.55826037  0.34506233    -0.39500
O1041       O  0.90030706  0.53216018  0.30718842    -0.37200
O1042       O  0.76760481  0.50777646  0.29222568    -0.38100
O1043       O  0.79570737  0.54517390  0.30102248    -0.34200
O1044       O  0.89195588  0.41888506  0.28974996    -0.35600
O1045       O  0.91834970  0.45793839  0.29674523    -0.39900
C1046       C  0.89363424  0.60611032  0.10839106    -0.13600
C1047       C  0.89893697  0.57700820  0.11682942     0.16800
C1048       C  0.92275781  0.56168408  0.10472047     0.03100
C1049       C  0.94045492  0.57547481  0.08415992    -0.12100
C1050       C  0.93520549  0.60447918  0.07575929    -0.03200
C1051       C  0.91164863  0.61993198  0.08794689     0.02300
C1052       C  0.87825656  0.56198150  0.13649950     0.09100
N1053       N  0.92933560  0.53222504  0.11329114     0.65500
H1054       H  0.95862612  0.56358279  0.07476132     0.18400
N1055       N  0.90555938  0.64934915  0.07930478     0.76000
H1056       H  0.87513738  0.61787386  0.11727670     0.09900
C1057       C  0.87390053  0.57133829  0.16529033     0.03600
C1058       C  0.85482768  0.55581427  0.18341860    -0.05100
C1059       C  0.84037231  0.53060403  0.17349326    -0.23500
C1060       C  0.84469328  0.52134816  0.14445107     0.12900
C1061       C  0.86314011  0.53746183  0.12621450    -0.12600
N1062       N  0.88950441  0.59587840  0.17666448     0.64500
H1063       H  0.85162778  0.56322473  0.20554820     0.12400
N1064       N  0.83188846  0.49489879  0.13357897     0.61200
H1065       H  0.86656740  0.53021117  0.10406042     0.08600
O1066       O  0.88617275  0.65442063  0.06046653    -0.40300
O1067       O  0.91737056  0.67035818  0.09258777    -0.39500
O1068       O  0.93428269  0.51297083  0.09427762    -0.39500
O1069       O  0.93257557  0.52594734  0.13982008    -0.37200
O1070       O  0.82206694  0.49398934  0.10795662    -0.38100
O1071       O  0.83442229  0.47140064  0.14780493    -0.34200
O1072       O  0.87576234  0.61782541  0.18613615    -0.35600
O1073       O  0.91691645  0.59478148  0.17918459    -0.39900
C1074       C  0.16903695  0.53299450  0.32023577    -0.13600
C1075       C  0.16982290  0.50469348  0.33225360     0.16800
C1076       C  0.18718026  0.48318256  0.31825032     0.03100
C1077       C  0.20149515  0.48999687  0.29189953    -0.12100
C1078       C  0.19994437  0.51814184  0.27955379    -0.03200
C1079       C  0.18454979  0.54022116  0.29487793     0.02300
C1080       C  0.15022084  0.49789183  0.35769461     0.09100
N1081       N  0.19053921  0.45442317  0.33044289     0.65500
H1082       H  0.21341026  0.47296579  0.28062280     0.18400
N1083       N  0.18441342  0.57009937  0.28499360     0.76000
H1084       H  0.15594709  0.54974497  0.33058887     0.09900
C1085       C  0.14752364  0.51718046  0.38170763     0.03600
C1086       C  0.12449196  0.51340861  0.40167591    -0.05100
C1087       C  0.10489935  0.48989747  0.39947224    -0.23500
C1088       C  0.10904687  0.46937247  0.37692260     0.12900
C1089       C  0.13118267  0.47376281  0.35617515    -0.12600
N1090       N  0.16818221  0.54037167  0.38637788     0.64500
H1091       H  0.12216767  0.52871764  0.41948415     0.12400
N1092       N  0.08977042  0.44502606  0.37352645     0.61200
H1093       H  0.13247835  0.45893612  0.33788019     0.08600
O1094       O  0.16193623  0.58579568  0.28815081    -0.40300
O1095       O  0.20749679  0.58162745  0.27535956    -0.39500
O1096       O  0.19157837  0.43230325  0.31407351    -0.39500
O1097       O  0.19499315  0.45125098  0.35734104    -0.37200
O1098       O  0.06359167  0.44924701  0.36605159    -0.38100
O1099       O  0.09977347  0.41929110  0.37433172    -0.34200
O1100       O  0.16013518  0.56411268  0.39788633    -0.35600
O1101       O  0.19500693  0.53617998  0.38164959    -0.39900
C1102       C  0.13158038  0.56103686  0.15663450    -0.13600
C1103       C  0.14269062  0.58168736  0.13697935     0.16800
C1104       C  0.17229660  0.58989618  0.13888484     0.03100
C1105       C  0.19021923  0.57684864  0.16003200    -0.12100
C1106       C  0.17948581  0.55501317  0.17880573    -0.03200
C1107       C  0.14964830  0.54717910  0.17701556     0.02300
C1108       C  0.12294544  0.59356560  0.11422951     0.09100
N1109       N  0.18473617  0.61045598  0.11884076     0.65500
H1110       H  0.21292737  0.58330433  0.16132843     0.18400
N1111       N  0.13759176  0.52424391  0.19459008     0.76000
H1112       H  0.10882243  0.55473128  0.15527792     0.09900
C1113       C  0.10841798  0.57455268  0.09483020     0.03600
C1114       C  0.08773814  0.58593266  0.07550613    -0.05100
C1115       C  0.08199799  0.61601969  0.07421038    -0.23500
C1116       C  0.09693107  0.63512793  0.09296051     0.12900
C1117       C  0.11709403  0.62377915  0.11303022    -0.12600
N1118       N  0.11494101  0.54381124  0.09401926     0.64500
H1119       H  0.07652987  0.57130484  0.06072659     0.12400
N1120       N  0.09160974  0.66591918  0.09196157     0.61200
H1121       H  0.12799492  0.63850663  0.12791992     0.08600
O1122       O  0.14943447  0.49928603  0.19502265    -0.40300
O1123       O  0.11337588  0.52792146  0.20714661    -0.39500
O1124       O  0.20117220  0.63059075  0.12796837    -0.39500
O1125       O  0.18166901  0.60686049  0.09181690    -0.37200
O1126       O  0.10691926  0.68197473  0.07568842    -0.38100
O1127       O  0.07441990  0.67749031  0.11002496    -0.34200
O1128       O  0.09470915  0.52543691  0.09046653    -0.35600
O1129       O  0.14112038  0.53515558  0.09370162    -0.39900
C1130       C  0.51137095  0.32375752  0.12164858    -0.13600
C1131       C  0.48927355  0.32703640  0.14254065     0.16800
C1132       C  0.47240910  0.35306268  0.14268043     0.03100
C1133       C  0.47633770  0.37373919  0.12032350    -0.12100
C1134       C  0.49756181  0.36972630  0.09870502    -0.03200
C1135       C  0.51561154  0.34471182  0.09978615     0.02300
C1136       C  0.48200804  0.30132958  0.16118298     0.09100
N1137       N  0.45124675  0.35866802  0.16510307     0.65500
H1138       H  0.46299300  0.39333577  0.11997552     0.18400
N1139       N  0.53665659  0.33900662  0.07750819     0.76000
H1140       H  0.52421638  0.30382473  0.12116822     0.09900
C1141       C  0.45405645  0.28821888  0.16033228     0.03600
C1142       C  0.44904547  0.26239557  0.17598711    -0.05100
C1143       C  0.47156562  0.24808742  0.19119687    -0.23500
C1144       C  0.49924670  0.26162733  0.19281735     0.12900
C1145       C  0.50399407  0.28826956  0.17818479    -0.12600
N1146       N  0.43106356  0.29958910  0.14227502     0.64500
H1147       H  0.42765185  0.25237259  0.17480757     0.12400
N1148       N  0.52324597  0.24783797  0.20744201     0.61200
H1149       H  0.52549303  0.29810182  0.17883402     0.08600
O1150       O  0.52833879  0.33501385  0.05166206    -0.40300
O1151       O  0.56290839  0.33404252  0.08423128    -0.39500
O1152       O  0.45588085  0.35026749  0.19084735    -0.39500
O1153       O  0.42904562  0.37420534  0.15982986    -0.37200
O1154       O  0.53069554  0.22209598  0.20081143    -0.38100
O1155       O  0.53926022  0.26257019  0.22426053    -0.34200
O1156       O  0.43593599  0.30569687  0.11595857    -0.35600
O1157       O  0.40507355  0.29962107  0.15137805    -0.39900
C1158       C  0.52750552  0.68613537  0.15633398    -0.13600
C1159       C  0.50981877  0.66214107  0.16344690     0.16800
C1160       C  0.49063472  0.66421598  0.18752948     0.03100
C1161       C  0.48801669  0.69106459  0.20230525    -0.12100
C1162       C  0.50448712  0.71548300  0.19388959    -0.03200
C1163       C  0.52503524  0.71262204  0.17133273     0.02300
C1164       C  0.50925103  0.63698629  0.14295221     0.09100
N1165       N  0.47284123  0.63984863  0.19628833     0.65500
H1166       H  0.47205733  0.69336594  0.21952162     0.18400
N1167       N  0.54224689  0.73709339  0.16232483     0.76000
H1168       H  0.54227842  0.68477339  0.13799499     0.09900
C1169       C  0.48366713  0.62952442  0.12739802     0.03600
C1170       C  0.48471412  0.60692207  0.10681408    -0.05100
C1171       C  0.51091123  0.59230411  0.10025663    -0.23500
C1172       C  0.53626360  0.59948509  0.11623297     0.12900
C1173       C  0.53517768  0.62156862  0.13736522    -0.12600
N1174       N  0.45690920  0.64561656  0.13094428     0.64500
H1175       H  0.46508505  0.60187970  0.09469721     0.12400
N1176       N  0.56335595  0.58483740  0.11117484     0.61200
H1177       H  0.55488842  0.62712476  0.14915088     0.08600
O1178       O  0.53971028  0.74715811  0.13689422    -0.40300
O1179       O  0.56143805  0.74736690  0.17911402    -0.39500
O1180       O  0.48278926  0.61409183  0.19528672    -0.39500
O1181       O  0.44770282  0.64411835  0.20669794    -0.37200
O1182       O  0.58163511  0.59577111  0.09378488    -0.38100
O1183       O  0.57098372  0.56402360  0.12756474    -0.34200
O1184       O  0.45713690  0.67323913  0.13143471    -0.35600
O1185       O  0.43271872  0.63247626  0.12974886    -0.39900
C1186       C  0.54225662  0.61896338  0.87564261    -0.13600
C1187       C  0.52020255  0.64035185  0.87394912     0.16800
C1188       C  0.49648830  0.63874032  0.89361138     0.03100
C1189       C  0.49490195  0.61554275  0.91359847    -0.12100
C1190       C  0.51707726  0.59440152  0.91557418    -0.03200
C1191       C  0.54099883  0.59620773  0.89626301     0.02300
C1192       C  0.52130991  0.66349654  0.85089661     0.09100
N1193       N  0.47451987  0.66117928  0.89447713     0.65500
H1194       H  0.47679423  0.61488032  0.92871732     0.18400
N1195       N  0.56356717  0.57451011  0.89649990     0.76000
H1196       H  0.56025638  0.61953727  0.86039627     0.09900
C1197       C  0.54578952  0.68199267  0.84722950     0.03600
C1198       C  0.54449668  0.70538073  0.82731505    -0.05100
C1199       C  0.51912885  0.71088977  0.81108559    -0.23500
C1200       C  0.49548406  0.69134829  0.81335796     0.12900
C1201       C  0.49683399  0.66782998  0.83293069    -0.12600
N1202       N  0.57113447  0.67887172  0.86518245     0.64500
H1203       H  0.56246094  0.72074968  0.82631113     0.12400
N1204       N  0.46920548  0.69635615  0.79727571     0.61200
H1205       H  0.47817803  0.65340833  0.83485064     0.08600
O1206       O  0.58992823  0.58211296  0.89887392    -0.40300
O1207       O  0.55746906  0.54815093  0.89106776    -0.39500
O1208       O  0.44806007  0.65444944  0.89810953    -0.39500
O1209       O  0.48179214  0.68781943  0.89473983    -0.37200
O1210       O  0.46960146  0.69577028  0.76986917    -0.38100
O1211       O  0.44534921  0.70021087  0.81042712    -0.34200
O1212       O  0.59604027  0.67662246  0.85369784    -0.35600
O1213       O  0.56900983  0.68122611  0.89242346    -0.39900
C1214       C  0.65766865  0.45381648  0.88631308    -0.13600
C1215       C  0.66367121  0.48068355  0.87264447     0.16800
C1216       C  0.64609137  0.50513967  0.87955184     0.03100
C1217       C  0.62443112  0.50269737  0.90096460    -0.12100
C1218       C  0.61991046  0.47646369  0.91633862    -0.03200
C1219       C  0.63646109  0.45151813  0.90833625     0.02300
C1220       C  0.68954721  0.48344462  0.85295971     0.09100
N1221       N  0.65083890  0.53304927  0.86614297     0.65500
H1222       H  0.61179330  0.52197121  0.90640091     0.18400
N1223       N  0.63353302  0.42421006  0.92338042     0.76000
H1224       H  0.67069471  0.43477596  0.88091529     0.09900
C1225       C  0.71791600  0.47583956  0.86261867     0.03600
C1226       C  0.74218679  0.48189860  0.84502411    -0.05100
C1227       C  0.73907470  0.49597903  0.81807183    -0.23500
C1228       C  0.71074214  0.50191239  0.80761072     0.12900
C1229       C  0.68629063  0.49533761  0.82489061    -0.12600
N1230       N  0.72274025  0.46374427  0.89098228     0.64500
H1231       H  0.76386212  0.47717916  0.85325519     0.12400
N1232       N  0.70658512  0.51672901  0.78055361     0.61200
H1233       H  0.66471631  0.50085941  0.81691705     0.08600
O1234       O  0.63969720  0.42273322  0.95008014    -0.40300
O1235       O  0.63094984  0.40083406  0.90904524    -0.39500
O1236       O  0.62982150  0.54643780  0.85433906    -0.39500
O1237       O  0.67516956  0.54570157  0.86872313    -0.37200
O1238       O  0.69715587  0.50288206  0.75879989    -0.38100
O1239       O  0.70946592  0.54415553  0.77918156    -0.34200
O1240       O  0.73855507  0.44129839  0.89397050    -0.35600
O1241       O  0.71400216  0.47723897  0.91326067    -0.39900
C1242       C  0.52430274  0.34270573  0.87608503    -0.13600
C1243       C  0.49773720  0.32876607  0.86981514     0.16800
C1244       C  0.47237043  0.33754538  0.88513791     0.03100
C1245       C  0.47433694  0.35987961  0.90612600    -0.12100
C1246       C  0.50113570  0.37312610  0.91313942    -0.03200
C1247       C  0.52624392  0.36479728  0.89723769     0.02300
C1248       C  0.49750613  0.30411580  0.84840486     0.09100
N1249       N  0.44485624  0.32304015  0.88095862     0.65500
H1250       H  0.45493149  0.36576209  0.91822729     0.18400
N1251       N  0.55387019  0.37859538  0.90204431     0.76000
H1252       H  0.54378675  0.33638521  0.86430136     0.09900
C1253       C  0.47896888  0.30365067  0.82370233     0.03600
C1254       C  0.47697566  0.27792351  0.80687726    -0.05100
C1255       C  0.49359644  0.25298877  0.81363531    -0.23500
C1256       C  0.51331000  0.25413171  0.83723226     0.12900
C1257       C  0.51496053  0.27953544  0.85429485    -0.12600
N1258       N  0.46160029  0.32868476  0.81588572     0.64500
H1259       H  0.46159026  0.27695909  0.78901693     0.12400
N1260       N  0.53079438  0.22916191  0.84489653     0.61200
H1261       H  0.52936094  0.27977763  0.87298325     0.08600
O1262       O  0.55661706  0.40576176  0.89784788    -0.40300
O1263       O  0.57630536  0.36316652  0.90649345    -0.39500
O1264       O  0.44371797  0.29549279  0.87926517    -0.39500
O1265       O  0.42133905  0.33738640  0.88253466    -0.37200
O1266       O  0.54346337  0.21446335  0.82541006    -0.38100
O1267       O  0.53529652  0.22293362  0.87126044    -0.34200
O1268       O  0.47200949  0.35416493  0.81789159    -0.35600
O1269       O  0.43658914  0.32530844  0.80486543    -0.39900
C1270       C  0.38139222  0.50628416  0.86655359    -0.13600
C1271       C  0.35357090  0.49406025  0.87098735     0.16800
C1272       C  0.34834458  0.47794508  0.89680697     0.03100
C1273       C  0.37090212  0.47433653  0.91719000    -0.12100
C1274       C  0.39812392  0.48771548  0.91327607    -0.03200
C1275       C  0.40356139  0.50359587  0.88753681     0.02300
C1276       C  0.33008727  0.49880399  0.84887117     0.09100
N1277       N  0.31986949  0.46675702  0.90360888     0.65500
H1278       H  0.36652257  0.46260222  0.93720347     0.18400
N1279       N  0.43159597  0.51648499  0.88211726     0.76000
H1280       H  0.38589806  0.51803472  0.84659351     0.09900
C1281       C  0.32238390  0.52724445  0.83943902     0.03600
C1282       C  0.29800923  0.53120028  0.82144208    -0.05100
C1283       C  0.28037533  0.50751247  0.81320137    -0.23500
C1284       C  0.28910336  0.47888924  0.82089314     0.12900
C1285       C  0.31420224  0.47478742  0.83807736    -0.12600
N1286       N  0.33765771  0.55256635  0.84963510     0.64500
H1287       H  0.29144523  0.55326289  0.81567803     0.12400
N1288       N  0.27158694  0.45404538  0.81346103     0.61200
H1289       H  0.32024249  0.45280688  0.84461793     0.08600
O1290       O  0.43336005  0.54146647  0.87050775    -0.40300
O1291       O  0.45462394  0.50192337  0.88652001    -0.39500
O1292       O  0.31725779  0.44195334  0.91543648    -0.39500
O1293       O  0.29773072  0.48311075  0.90147960    -0.37200
O1294       O  0.28323332  0.43200131  0.80170580    -0.38100
O1295       O  0.24537099  0.45262923  0.82176532    -0.34200
O1296       O  0.34728056  0.57110442  0.83169423    -0.35600
O1297       O  0.33884722  0.55801275  0.87649122    -0.39900
C1298       C  0.35873932  0.52122298  0.12639274    -0.13600
C1299       C  0.35135366  0.49650168  0.14300659     0.16800
C1300       C  0.36528800  0.46957239  0.13654906     0.03100
C1301       C  0.38547169  0.46796041  0.11341516    -0.12100
C1302       C  0.39275994  0.49273827  0.09672512    -0.03200
C1303       C  0.37904663  0.51968351  0.10357728     0.02300
C1304       C  0.32685603  0.49887648  0.16462709     0.09100
N1305       N  0.35971914  0.44386748  0.15364118     0.65500
H1306       H  0.39603774  0.44724258  0.10888013     0.18400
N1307       N  0.38423386  0.54550258  0.08672027     0.76000
H1308       H  0.34769869  0.54181662  0.13038039     0.09900
C1309       C  0.32567761  0.52155591  0.18564745     0.03600
C1310       C  0.29996155  0.52595736  0.20196407    -0.05100
C1311       C  0.27552226  0.50785473  0.19834117    -0.23500
C1312       C  0.27728476  0.48441984  0.17853885     0.12900
C1313       C  0.30258351  0.48027226  0.16180512    -0.12600
N1314       N  0.35012530  0.54061821  0.19023729     0.64500
H1315       H  0.29865207  0.54425692  0.21685259     0.12400
N1316       N  0.25284560  0.46551621  0.17420896     0.61200
H1317       H  0.30278942  0.46305692  0.14564596     0.08600
O1318       O  0.39341910  0.56840088  0.09897329    -0.40300
O1319       O  0.37501786  0.54691678  0.06090104    -0.39500
O1320       O  0.35793504  0.41913735  0.14158844    -0.39500
O1321       O  0.35905938  0.44542619  0.18102113    -0.37200
O1322       O  0.23881044  0.46633627  0.15062322    -0.38100
O1323       O  0.24618895  0.44693075  0.19339026    -0.34200
O1324       O  0.34613549  0.56764291  0.19432215    -0.35600
O1325       O  0.37561506  0.53025120  0.19209217    -0.39900
C1326       C  0.71536261  0.46483141  0.15235591    -0.13600
C1327       C  0.69009699  0.47796696  0.16368146     0.16800
C1328       C  0.69182165  0.49193709  0.19119784     0.03100
C1329       C  0.71924267  0.49464286  0.20507825    -0.12100
C1330       C  0.74465669  0.48271886  0.19277288    -0.03200
C1331       C  0.74231731  0.46650162  0.16672676     0.02300
C1332       C  0.66319648  0.47789916  0.14499210     0.09100
N1333       N  0.66626163  0.50371257  0.20507830     0.65500
H1334       H  0.72093945  0.50679140  0.22520324     0.18400
N1335       N  0.76724179  0.45188655  0.15446516     0.76000
H1336       H  0.71420620  0.45353969  0.13170271     0.09900
C1337       C  0.64896736  0.50399885  0.13604815     0.03600
C1338       C  0.62637326  0.50264803  0.11527832    -0.05100
C1339       C  0.61803426  0.47608070  0.10224154    -0.23500
C1340       C  0.63152370  0.45002896  0.11207420     0.12900
C1341       C  0.65351915  0.45117044  0.13333028    -0.12600
N1342       N  0.65805448  0.53218345  0.14643863     0.64500
H1343       H  0.61625646  0.52287906  0.10819813     0.12400
N1344       N  0.62451244  0.42232669  0.09954987     0.61200
H1345       H  0.66406963  0.43096926  0.13990379     0.08600
O1346       O  0.76956774  0.44901732  0.12727937    -0.40300
O1347       O  0.78531467  0.43901556  0.17081372    -0.39500
O1348       O  0.64202670  0.49078901  0.20292417    -0.39500
O1349       O  0.66828872  0.52569712  0.22154168    -0.37200
O1350       O  0.63696108  0.41442041  0.07639483    -0.38100
O1351       O  0.61005613  0.40391932  0.11405075    -0.34200
O1352       O  0.68472591  0.53906249  0.14647788    -0.35600
O1353       O  0.63921862  0.55151340  0.15221058    -0.39900
loop_ 
_geom_bond_atom_site_label_1 
_geom_bond_atom_site_label_2 
_geom_bond_distance 
_geom_bond_site_symmetry_2 
_ccdc_geom_bond_type 
N1            N2   1.322       .  A
N1            N7   1.316       .  A
N1          Mn30   2.214       .  S
N2            C9   1.355       .  A
N3            N5   1.316       .  A
N3            N4   1.325       .  A
N3          Mn19   2.222   1_556  S
N4           C10   1.357       .  A
N5            N6   1.320       .  A
N5          Mn30   2.207   1_556  S
N6           C10   1.354       .  A
N7            N8   1.325       .  A
N7          Mn19   2.229       .  S
N8            C9   1.358       .  A
C9         C1339   1.500       .  S
C10        C1218   1.495       .  S
N11          N17   1.317       .  A
N11          N12   1.323       .  A
N11         Mn41   2.219   1_556  S
N12          C20   1.356       .  A
N13          N14   1.322       .  A
N13          N15   1.317       .  A
N13         Mn19   2.216       .  S
N14          C21   1.355       .  A
N15          N16   1.321       .  A
N15         Mn41   2.204       .  S
N16          C21   1.352       .  A
N17          N18   1.323       .  A
N17         Mn19   2.219   1_556  S
N18          C20   1.356       .  A
Mn19        Cl43   2.558       .  S
C20        C1246   1.497       .  S
C21        C1134   1.481       .  S
N22          N23   1.324       .  A
N22          N28   1.316       .  A
N22         Mn30   2.216   1_556  S
N23          C31   1.356       .  A
N24          N26   1.315       .  A
N24          N25   1.319       .  A
N24         Mn42   2.204       .  S
N25          C32   1.354       .  A
N26          N27   1.323       .  A
N26         Mn30   2.212       .  S
N27          C32   1.356       .  A
N28          N29   1.321       .  A
N28         Mn42   2.211   1_556  S
N29          C31   1.355       .  A
Mn30        Cl43   2.552       .  S
C31        C1190   1.490       .  S
C32        C1171   1.490       .  S
N33          N34   1.326       .  A
N33          N39   1.316       .  A
N33         Mn41   2.226       .  S
N34          C44   1.359       .  A
N35          N36   1.322       .  A
N35          N37   1.316       .  A
N35         Mn42   2.214   1_556  S
N36          C45   1.355       .  A
N37          N38   1.321       .  A
N37         Mn41   2.203   1_556  S
N38          C45   1.352       .  A
N39          N40   1.321       .  A
N39         Mn42   2.215       .  S
N40          C44   1.355       .  A
Mn41        Cl43   2.555       .  S
Mn42        Cl43   2.549       .  S
C44        C1302   1.501       .  S
C45        C1274   1.479       .  S
C46        C1311   1.490       .  S
C46          C47   1.403       .  A
C46          C51   1.415       .  A
C47          C48   1.401       .  A
C47          H52   1.084       .  S
C48        C1106   1.491       .  S
C48          C49   1.403       .  A
C49          C50   1.408       .  A
C49          H53   1.082       .  S
C50        C1078   1.503       .  S
C50          C51   1.418       .  A
C51          H54   1.083       .  S
C55        C1330   1.492       .  S
C55          C56   1.405       .  A
C55          C60   1.414       .  A
C56          C57   1.400       .  A
C56          H61   1.084       .  S
C57        C1059   1.486       .  S
C57          C58   1.400       .  A
C58          C59   1.404       .  A
C58          H62   1.084       .  S
C59        C1031   1.490       .  S
C59          C60   1.415       .  A
C60          H63   1.083       .  S
C64         C966   1.482       .  S
C64          C65   1.412       .  A
C64          C69   1.402       .  A
C65          C66   1.413       .  A
C65          H70   1.083       .  S
C66        C1283   1.486       .  S
C66          C67   1.402       .  A
C67          C68   1.398       .  A
C67          H71   1.084       .  S
C68         C994   1.481       .  S
C68          C69   1.399       .  A
C69          H72   1.084       .  S
C73         C910   1.485       .  S
C73          C74   1.401       .  A
C73          C78   1.408       .  A
C74          C75   1.405       .  A
C74          H79   1.083       .  S
C75         C938   1.501       .  S
C75          C76   1.406       .  A
C76          C77   1.408       .  A
C76          H80   1.082       .  S
C77        C1227   1.490       .  S
C77          C78   1.411       .  A
C78          H81   1.083       .  S
N82          C87   1.352       .  A
N82          C86   1.354   1_455  A
N82         H114   1.018       .  S
N83          C90   1.352   1_554  A
N83          C91   1.351       .  A
N84          C89   1.354       .  A
N84          C88   1.353   1_455  A
N84         H115   1.011       .  S
N85          C92   1.353       .  A
N85          C93   1.354   1_556  A
C86          C94   1.387       .  A
C86         C102   1.416       .  A
C87         C103   1.415       .  A
C87          C95   1.387       .  A
C88          C96   1.387       .  A
C88         C105   1.418       .  A
C89         C104   1.418       .  A
C89          C97   1.388       .  A
C90         C102   1.414       .  A
C90          C98   1.386       .  A
C91         C105   1.416       .  A
C91          C99   1.388       .  A
C92         C100   1.387       .  A
C92         C103   1.417       .  A
C93         C101   1.387       .  A
C93         C104   1.419       .  A
C94          C95   1.377   1_655  A
C94         H106   1.082       .  S
C95         H107   1.083       .  S
C96          C97   1.375   1_655  A
C96         H108   1.083       .  S
C97         H109   1.082       .  S
C98          C99   1.370   1_556  A
C98         H110   1.082       .  S
C99         H111   1.082       .  S
C100        C101   1.369   1_556  A
C100        H112   1.082       .  S
C101        H113   1.082       .  S
C102        C947   1.485       .  S
C103       C1003   1.486       .  S
C104       C1115   1.487       .  S
C105       C1050   1.483       .  S
N116        N117   1.320       .  A
N116        N122   1.316       .  A
N116       Mn145   2.204       .  S
N117        C124   1.353       .  A
N118        N120   1.315       .  A
N118        N119   1.322       .  A
N118       Mn134   2.212   1_655  S
N119        C125   1.356       .  A
N120        N121   1.322       .  A
N120       Mn145   2.210   1_655  S
N121        C125   1.355       .  A
N122        N123   1.323       .  A
N122       Mn134   2.216       .  S
N123        C124   1.356       .  A
C124        C882   1.484       .  S
C125        C835   1.494       .  S
N126        N132   1.316       .  A
N126        N127   1.322       .  A
N126       Mn156   2.214   1_655  S
N127        C135   1.355       .  A
N128        N129   1.322       .  A
N128        N130   1.316       .  A
N128       Mn134   2.213       .  S
N129        C136   1.354       .  A
N130        N131   1.325       .  A
N130       Mn156   2.226       .  S
N131        C136   1.358       .  A
N132        N133   1.324       .  A
N132       Mn134   2.222   1_655  S
N133        C135   1.357       .  A
Mn134      Cl158   2.557       .  S
C135       C1022   1.494       .  S
C136       C1087   1.494       .  S
N137        N138   1.320       .  A
N137        N143   1.316       .  A
N137       Mn145   2.207   1_655  S
N138        C146   1.355       .  A
N139        N141   1.315       .  A
N139        N140   1.325       .  A
N139       Mn157   2.217       .  S
N140        C147   1.357       .  A
N141        N142   1.320       .  A
N141       Mn145   2.207       .  S
N142        C147   1.354       .  A
N143        N144   1.325       .  A
N143       Mn157   2.224   1_655  S
N144        C146   1.358       .  A
Mn145      Cl158   2.547       .  S
C146        C919   1.496       .  S
C147        C975   1.492       .  S
N148        N149   1.321       .  A
N148        N154   1.317       .  A
N148       Mn156   2.211       .  S
N149        C159   1.354       .  A
N150        N151   1.321       .  A
N150        N152   1.317       .  A
N150       Mn157   2.210   1_655  S
N151        C160   1.354       .  A
N152        N153   1.323       .  A
N152       Mn156   2.217   1_655  S
N153        C160   1.355       .  A
N154        N155   1.320       .  A
N154       Mn157   2.208       .  S
N155        C159   1.354       .  A
Mn156      Cl158   2.551       .  S
Mn157      Cl158   2.558       .  S
C159        C854   1.485       .  S
C160        C798   1.489       .  S
C161        C751   1.483       .  S
C161        C162   1.404       .  A
C161        C166   1.410       .  A
C162        C163   1.399       .  A
C162        H167   1.084       .  S
C163        C770   1.480       .  S
C163        C164   1.398       .  A
C164        C165   1.402       .  A
C164        H168   1.085       .  S
C165       C1162   1.479       .  S
C165        C166   1.408       .  A
C166        H169   1.083       .  S
C170       C1143   1.492       .  S
C170        C171   1.406       .  A
C170        C175   1.411       .  A
C171        C172   1.402       .  A
C171        H176   1.084       .  S
C172        C714   1.490       .  S
C172        C173   1.400       .  A
C173        C174   1.402       .  A
C173        H177   1.083       .  S
C174        C695   1.482       .  S
C174        C175   1.409       .  A
C175        H178   1.083       .  S
C179       C1255   1.487       .  S
C179        C180   1.415       .  A
C179        C184   1.403       .  A
C180        C181   1.415       .  A
C180        H185   1.083       .  S
C181        C630   1.488       .  S
C181        C182   1.401       .  A
C182        C183   1.398       .  A
C182        H186   1.085       .  S
C183        C658   1.479       .  S
C183        C184   1.399       .  A
C184        H187   1.084       .  S
C188        C574   1.484       .  S
C188        C189   1.403       .  A
C188        C193   1.412       .  A
C189        C190   1.398       .  A
C189        H194   1.085       .  S
C190        C602   1.480       .  S
C190        C191   1.398       .  A
C191        C192   1.403       .  A
C191        H195   1.085       .  S
C192       C1199   1.483       .  S
C192        C193   1.412       .  A
C193        H196   1.083       .  S
N197        C202   1.354   1_556  A
N197        C201   1.354       .  A
N197        H229   1.040       .  S
N198        C205   1.349       .  A
N198        C206   1.350       .  A
N199        C204   1.353   1_556  A
N199        C203   1.354       .  A
N199        H230   1.040       .  S
N200        C207   1.350   1_565  A
N200        C208   1.350       .  A
C201        C209   1.388       .  A
C201        C217   1.415       .  A
C202        C218   1.414       .  A
C202        C210   1.387       .  A
C203        C211   1.387       .  A
C203        C220   1.414       .  A
C204        C219   1.413       .  A
C204        C212   1.387       .  A
C205        C217   1.409   1_565  A
C205        C213   1.386       .  A
C206        C220   1.410       .  A
C206        C214   1.386       .  A
C207        C215   1.386   1_545  A
C207        C218   1.409       .  A
C208        C216   1.386       .  A
C208        C219   1.409       .  A
C209        C210   1.371   1_556  A
C209        H221   1.082       .  S
C210        H222   1.082       .  S
C211        C212   1.373   1_556  A
C211        H223   1.082       .  S
C212        H224   1.082       .  S
C213        C214   1.372       .  A
C213        H225   1.083       .  S
C214        H226   1.082       .  S
C215        C216   1.372       .  A
C215        H227   1.082   1_565  S
C216        H228   1.082       .  S
C217        C667   1.486       .  S
C218        C723   1.482       .  S
C219        C779   1.483       .  S
C220        C611   1.489       .  S
C231        C891   1.492       .  S
C231        C232   1.406       .  A
C231        C236   1.415       .  A
C232        C233   1.396       .  A
C232        H237   1.083       .  S
C233        C546   1.485       .  S
C233        C234   1.397       .  A
C234        C235   1.404       .  A
C234        H238   1.084       .  S
C235        C518   1.491       .  S
C235        C236   1.414       .  A
C236        H239   1.083       .  S
C240        C471   1.479       .  S
C240        C241   1.411       .  A
C240        C245   1.402       .  A
C241        C242   1.411       .  A
C241        H246   1.083       .  S
C242        C807   1.482       .  S
C242        C243   1.402       .  A
C243        C244   1.398       .  A
C243        H247   1.085       .  S
C244        C490   1.481       .  S
C244        C245   1.398       .  A
C245        H248   1.084       .  S
C249        C863   1.474       .  S
C249        C250   1.404       .  A
C249        C254   1.402       .  A
C250        C251   1.405       .  A
C250        H255   1.083       .  S
C251        C406   1.477       .  S
C251        C252   1.405       .  A
C252        C253   1.402       .  A
C252        H256   1.084       .  S
C253        C434   1.486       .  S
C253        C254   1.400       .  A
C254        H257   1.084       .  S
C258        C359   1.492       .  S
C258        C259   1.414       .  A
C258        C263   1.405       .  A
C259        C260   1.414       .  A
C259        H264   1.083       .  S
C260        C826   1.487       .  S
C260        C261   1.404       .  A
C261        C262   1.399       .  A
C261        H265   1.084       .  S
C262        C378   1.483       .  S
C262        C263   1.398       .  A
C263        H266   1.084       .  S
N267        C272   1.354       .  A
N267        C271   1.352   1_565  A
N267        H299   1.036       .  S
N268        C275   1.350   1_455  A
N268        C276   1.350       .  A
N269        C274   1.354       .  A
N269        C273   1.355   1_565  A
N269        H300   1.036       .  S
N270        C277   1.351   1_455  A
N270        C278   1.349       .  A
C271        C279   1.388       .  A
C271        C287   1.415       .  A
C272        C288   1.415       .  A
C272        C280   1.387       .  A
C273        C281   1.388       .  A
C273        C290   1.418       .  A
C274        C289   1.416       .  A
C274        C282   1.387       .  A
C275        C287   1.410       .  A
C275        C283   1.385       .  A
C276        C290   1.412       .  A
C276        C284   1.387       .  A
C277        C285   1.386       .  A
C277        C288   1.411       .  A
C278        C286   1.387       .  A
C278        C289   1.411       .  A
C279        C280   1.372   1_545  A
C279        H291   1.082       .  S
C280        H292   1.082       .  S
C281        C282   1.371   1_545  A
C281        H293   1.082       .  S
C282        H294   1.082       .  S
C283        C284   1.370   1_655  A
C283        H295   1.082       .  S
C284        H296   1.081       .  S
C285        C286   1.371   1_655  A
C285        H297   1.082       .  S
C286        H298   1.082       .  S
C287        C499   1.481       .  S
C288        C387   1.483       .  S
C289        C555   1.480       .  S
C290        C443   1.487       .  S
N301        N302   1.322       .  A
N301        N307   1.316       .  A
N301       Mn330   2.217       .  S
N302        C309   1.355       .  A
N303        N305   1.317       .  A
N303        N304   1.321       .  A
N303       Mn319   2.205   1_545  S
N304        C310   1.353       .  A
N305        N306   1.322       .  A
N305       Mn330   2.219   1_545  S
N306        C310   1.356       .  A
N307        N308   1.322       .  A
N307       Mn319   2.210       .  S
N308        C309   1.354       .  A
C309        C350   1.486       .  S
C310        C462   1.489       .  S
N311        N317   1.316       .  A
N311        N312   1.323       .  A
N311       Mn341   2.221   1_545  S
N312        C320   1.355       .  A
N313        N314   1.319       .  A
N313        N315   1.316       .  A
N313       Mn319   2.204       .  S
N314        C321   1.353       .  A
N315        N316   1.324       .  A
N315       Mn341   2.220       .  S
N316        C321   1.358       .  A
N317        N318   1.322       .  A
N317       Mn319   2.204   1_545  S
N318        C320   1.352       .  A
Mn319      Cl343   2.551       .  S
C320        C686   1.480       .  S
C321        C742   1.493       .  S
N322        N323   1.326       .  A
N322        N328   1.315       .  A
N322       Mn330   2.229   1_545  S
N323        C331   1.360       .  A
N324        N326   1.316       .  A
N324        N325   1.322       .  A
N324       Mn342   2.212       .  S
N325        C332   1.355       .  A
N326        N327   1.323       .  A
N326       Mn330   2.215       .  S
N327        C332   1.356       .  A
N328        N329   1.319       .  A
N328       Mn342   2.202   1_545  S
N329        C331   1.352       .  A
Mn330      Cl343   2.559       .  S
C331        C639   1.499       .  S
C332        C583   1.493       .  S
N333        N334   1.324       .  A
N333        N339   1.317       .  A
N333       Mn341   2.221       .  S
N334        C344   1.356       .  A
N335        N336   1.320       .  A
N335        N337   1.315       .  A
N335       Mn342   2.207   1_545  S
N336        C345   1.355       .  A
N337        N338   1.322       .  A
N337       Mn341   2.210   1_545  S
N338        C345   1.355       .  A
N339        N340   1.320       .  A
N339       Mn342   2.204       .  S
N340        C344   1.352       .  A
Mn341      Cl343   2.559       .  S
Mn342      Cl343   2.544       .  S
C344        C527   1.484       .  S
C345        C415   1.493       .  S
C346        C347   1.407       .  A
C346        C351   1.406       .  A
C346        H356   1.083       .  S
C347        C352   1.500       .  S
C347        C348   1.418       .  A
C348        C349   1.407       .  A
C348        N353   1.438       .  S
C349        C350   1.403       .  A
C349        H354   1.084       .  S
C350        C351   1.414       .  A
C351        N355   1.433       .  S
C352        C357   1.418       .  A
C352        C361   1.405       .  A
N353        O368   1.262       .  A
N353        O369   1.263       .  A
N355        O366   1.262       .  A
N355        O367   1.262       .  A
C357        C358   1.412       .  A
C357        N362   1.436       .  S
C358        C359   1.405       .  A
C358        H363   1.083       .  S
C359        C360   1.415       .  A
C360        C361   1.401       .  A
C360        N364   1.438       .  S
C361        H365   1.083       .  S
N362        O372   1.263       .  A
N362        O373   1.262       .  A
N364        O370   1.263       .  A
N364        O371   1.263       .  A
C374        C375   1.402       .  A
C374        C379   1.402       .  A
C374        H384   1.084       .  S
C375        C380   1.481       .  S
C375        C376   1.412       .  A
C376        C377   1.401       .  A
C376        N381   1.435       .  S
C377        C378   1.404       .  A
C377        H382   1.084       .  S
C378        C379   1.414       .  A
C379        N383   1.434       .  S
C380        C385   1.412       .  A
C380        C389   1.403       .  A
N381        O396   1.262       .  A
N381        O397   1.263       .  A
N383        O394   1.262       .  A
N383        O395   1.262       .  A
C385        C386   1.402       .  A
C385        N390   1.431       .  S
C386        C387   1.400       .  A
C386        H391   1.084       .  S
C387        C388   1.408       .  A
C388        C389   1.398       .  A
C388        N392   1.429       .  S
C389        H393   1.084       .  S
N390        O400   1.262       .  A
N390        O401   1.262       .  A
N392        O398   1.262       .  A
N392        O399   1.262       .  A
C402        C403   1.405       .  A
C402        C407   1.399       .  A
C402        H412   1.084       .  S
C403        C408   1.492       .  S
C403        C404   1.420       .  A
C404        C405   1.409       .  A
C404        N409   1.439       .  S
C405        C406   1.402       .  A
C405        H410   1.084       .  S
C406        C407   1.407       .  A
C407        N411   1.434       .  S
C408        C413   1.415       .  A
C408        C417   1.404       .  A
N409        O424   1.262       .  A
N409        O425   1.263       .  A
N411        O422   1.262       .  A
N411        O423   1.263       .  A
C413        C414   1.405       .  A
C413        N418   1.437       .  S
C414        C415   1.408       .  A
C414        H419   1.083       .  S
C415        C416   1.417       .  A
C416        C417   1.403       .  A
C416        N420   1.432       .  S
C417        H421   1.084       .  S
N418        O428   1.262       .  A
N418        O429   1.262       .  A
N420        O426   1.262       .  A
N420        O427   1.262       .  A
C430        C431   1.403       .  A
C430        C435   1.397       .  A
C430        H440   1.084       .  S
C431        C436   1.485       .  S
C431        C432   1.414       .  A
C432        C433   1.406       .  A
C432        N437   1.436       .  S
C433        C434   1.406       .  A
C433        H438   1.084       .  S
C434        C435   1.415       .  A
C435        N439   1.435       .  S
C436        C441   1.417       .  A
C436        C445   1.403       .  A
N437        O452   1.262       .  A
N437        O453   1.263       .  A
N439        O450   1.262       .  A
N439        O451   1.263       .  A
C441        C442   1.409       .  A
C441        N446   1.438       .  S
C442        C443   1.404       .  A
C442        H447   1.083       .  S
C443        C444   1.410       .  A
C444        C445   1.393       .  A
C444        N448   1.436       .  S
C445        H449   1.084       .  S
N446        O456   1.262       .  A
N446        O457   1.263       .  A
N448        O454   1.262       .  A
N448        O455   1.262       .  A
C458        C459   1.406       .  A
C458        C463   1.405       .  A
C458        H468   1.083       .  S
C459        C464   1.498       .  S
C459        C460   1.418       .  A
C460        C461   1.404       .  A
C460        N465   1.436       .  S
C461        C462   1.403       .  A
C461        H466   1.084       .  S
C462        C463   1.414       .  A
C463        N467   1.430       .  S
C464        C469   1.418       .  A
C464        C473   1.408       .  A
N465        O480   1.262       .  A
N465        O481   1.263       .  A
N467        O478   1.262       .  A
N467        O479   1.262       .  A
C469        C470   1.406       .  A
C469        N474   1.432       .  S
C470        C471   1.402       .  A
C470        H475   1.084       .  S
C471        C472   1.407       .  A
C472        C473   1.401       .  A
C472        N476   1.429       .  S
C473        H477   1.084       .  S
N474        O484   1.262       .  A
N474        O485   1.262       .  A
N476        O482   1.262       .  A
N476        O483   1.261       .  A
C486        C487   1.400       .  A
C486        C491   1.399       .  A
C486        H496   1.084       .  S
C487        C492   1.474       .  S
C487        C488   1.408       .  A
C488        C489   1.401       .  A
C488        N493   1.434       .  S
C489        C490   1.406       .  A
C489        H494   1.084       .  S
C490        C491   1.414       .  A
C491        N495   1.434       .  S
C492        C497   1.413       .  A
C492        C501   1.401       .  A
N493        O508   1.262       .  A
N493        O509   1.262       .  A
N495        O506   1.262       .  A
N495        O507   1.262       .  A
C497        C498   1.403       .  A
C497        N502   1.435       .  S
C498        C499   1.401       .  A
C498        H503   1.084       .  S
C499        C500   1.407       .  A
C500        C501   1.395       .  A
C500        N504   1.429       .  S
C501        H505   1.084       .  S
N502        O512   1.262       .  A
N502        O513   1.262       .  A
N504        O510   1.262       .  A
N504        O511   1.262       .  A
C514        C515   1.408       .  A
C514        C519   1.409       .  A
C514        H524   1.084       .  S
C515        C520   1.492       .  S
C515        C516   1.415       .  A
C516        C517   1.400       .  A
C516        N521   1.438       .  S
C517        C518   1.405       .  A
C517        H522   1.084       .  S
C518        C519   1.411       .  A
C519        N523   1.431       .  S
C520        C525   1.415       .  A
C520        C529   1.405       .  A
N521        O536   1.263       .  A
N521        O537   1.263       .  A
N523        O534   1.262       .  A
N523        O535   1.262       .  A
C525        C526   1.406       .  A
C525        N530   1.438       .  S
C526        C527   1.404       .  A
C526        H531   1.084       .  S
C527        C528   1.413       .  A
C528        C529   1.406       .  A
C528        N532   1.433       .  S
C529        H533   1.084       .  S
N530        O540   1.263       .  A
N530        O541   1.263       .  A
N532        O538   1.262       .  A
N532        O539   1.263       .  A
C542        C543   1.403       .  A
C542        C547   1.399       .  A
C542        H552   1.084       .  S
C543        C548   1.480       .  S
C543        C544   1.408       .  A
C544        C545   1.400       .  A
C544        N549   1.432       .  S
C545        C546   1.407       .  A
C545        H550   1.084       .  S
C546        C547   1.416       .  A
C547        N551   1.435       .  S
C548        C553   1.413       .  A
C548        C557   1.407       .  A
N549        O564   1.262       .  A
N549        O565   1.262       .  A
N551        O562   1.262       .  A
N551        O563   1.263       .  A
C553        C554   1.394       .  A
C553        N558   1.435       .  S
C554        C555   1.399       .  A
C554        H559   1.084       .  S
C555        C556   1.406       .  A
C556        C557   1.404       .  A
C556        N560   1.430       .  S
C557        H561   1.084       .  S
N558        O568   1.262       .  A
N558        O569   1.262       .  A
N560        O566   1.262       .  A
N560        O567   1.262       .  A
C570        C571   1.407       .  A
C570        C575   1.405       .  A
C570        H580   1.084       .  S
C571        C576   1.498       .  S
C571        C572   1.420       .  A
C572        C573   1.408       .  A
C572        N577   1.437       .  S
C573        C574   1.403       .  A
C573        H578   1.084       .  S
C574        C575   1.408       .  A
C575        N579   1.432       .  S
C576        C581   1.418       .  A
C576        C585   1.404       .  A
N577        O592   1.262       .  A
N577        O593   1.263       .  A
N579        O590   1.262       .  A
N579        O591   1.262       .  A
C581        C582   1.411       .  A
C581        N586   1.439       .  S
C582        C583   1.407       .  A
C582        H587   1.083       .  S
C583        C584   1.414       .  A
C584        C585   1.402       .  A
C584        N588   1.431       .  S
C585        H589   1.084       .  S
N586        O596   1.263       .  A
N586        O597   1.263       .  A
N588        O594   1.262       .  A
N588        O595   1.262       .  A
C598        C599   1.400       .  A
C598        C603   1.402       .  A
C598        H608   1.084       .  S
C599        C604   1.478       .  S
C599        C600   1.411       .  A
C600        C601   1.402       .  A
C600        N605   1.434       .  S
C601        C602   1.404       .  A
C601        H606   1.084       .  S
C602        C603   1.415       .  A
C603        N607   1.436       .  S
C604        C609   1.410       .  A
C604        C613   1.403       .  A
N605        O620   1.262       .  A
N605        O621   1.262       .  A
N607        O618   1.262       .  A
N607        O619   1.262       .  A
C609        C610   1.400       .  A
C609        N614   1.436       .  S
C610        C611   1.404       .  A
C610        H615   1.084       .  S
C611        C612   1.411       .  A
C612        C613   1.403       .  A
C612        N616   1.435       .  S
C613        H617   1.084       .  S
N614        O624   1.262       .  A
N614        O625   1.262       .  A
N616        O622   1.262       .  A
N616        O623   1.262       .  A
C626        C627   1.405       .  A
C626        C631   1.402       .  A
C626        H636   1.084       .  S
C627        C632   1.500       .  S
C627        C628   1.419       .  A
C628        C629   1.411       .  A
C628        N633   1.436       .  S
C629        C630   1.403       .  A
C629        H634   1.084       .  S
C630        C631   1.411       .  A
C631        N635   1.429       .  S
C632        C637   1.416       .  A
C632        C641   1.403       .  A
N633        O648   1.263       .  A
N633        O649   1.262       .  A
N635        O646   1.262       .  A
N635        O647   1.262       .  A
C637        C638   1.411       .  A
C637        N642   1.435       .  S
C638        C639   1.407       .  A
C638        H643   1.083       .  S
C639        C640   1.418       .  A
C640        C641   1.403       .  A
C640        N644   1.430       .  S
C641        H645   1.084       .  S
N642        O652   1.262       .  A
N642        O653   1.262       .  A
N644        O650   1.262       .  A
N644        O651   1.262       .  A
C654        C655   1.402       .  A
C654        C659   1.399       .  A
C654        H664   1.084       .  S
C655        C660   1.477       .  S
C655        C656   1.409       .  A
C656        C657   1.402       .  A
C656        N661   1.434       .  S
C657        C658   1.405       .  A
C657        H662   1.084       .  S
C658        C659   1.412       .  A
C659        N663   1.434       .  S
C660        C665   1.411       .  A
C660        C669   1.403       .  A
N661        O676   1.262       .  A
N661        O677   1.262       .  A
N663        O674   1.262       .  A
N663        O675   1.262       .  A
C665        C666   1.397       .  A
C665        N670   1.437       .  S
C666        C667   1.402       .  A
C666        H671   1.084       .  S
C667        C668   1.410       .  A
C668        C669   1.404       .  A
C668        N672   1.433       .  S
C669        H673   1.084       .  S
N670        O680   1.263       .  A
N670        O681   1.263       .  A
N672        O678   1.262       .  A
N672        O679   1.262       .  A
C682        C683   1.407       .  A
C682        C687   1.408       .  A
C682        H692   1.083       .  S
C683        C688   1.496       .  S
C683        C684   1.417       .  A
C684        C685   1.404       .  A
C684        N689   1.435       .  S
C685        C686   1.402       .  A
C685        H690   1.084       .  S
C686        C687   1.413       .  A
C687        N691   1.439       .  S
C688        C693   1.416       .  A
C688        C697   1.409       .  A
N689        O704   1.262       .  A
N689        O705   1.263       .  A
N691        O702   1.263       .  A
N691        O703   1.263       .  A
C693        C694   1.402       .  A
C693        N698   1.433       .  S
C694        C695   1.401       .  A
C694        H699   1.084       .  S
C695        C696   1.409       .  A
C696        C697   1.405       .  A
C696        N700   1.431       .  S
C697        H701   1.084       .  S
N698        O708   1.262       .  A
N698        O709   1.262       .  A
N700        O706   1.262       .  A
N700        O707   1.262       .  A
C710        C711   1.404       .  A
C710        C715   1.400       .  A
C710        H720   1.084       .  S
C711        C716   1.487       .  S
C711        C712   1.411       .  A
C712        C713   1.402       .  A
C712        N717   1.433       .  S
C713        C714   1.408       .  A
C713        H718   1.084       .  S
C714        C715   1.417       .  A
C715        N719   1.435       .  S
C716        C721   1.417       .  A
C716        C725   1.408       .  A
N717        O732   1.262       .  A
N717        O733   1.262       .  A
N719        O730   1.262       .  A
N719        O731   1.262       .  A
C721        C722   1.397       .  A
C721        N726   1.437       .  S
C722        C723   1.399       .  A
C722        H727   1.084       .  S
C723        C724   1.405       .  A
C724        C725   1.403       .  A
C724        N728   1.429       .  S
C725        H729   1.083       .  S
N726        O736   1.263       .  A
N726        O737   1.263       .  A
N728        O734   1.262       .  A
N728        O735   1.262       .  A
C738        C739   1.402       .  A
C738        C743   1.404       .  A
C738        H748   1.084       .  S
C739        C744   1.489       .  S
C739        C740   1.412       .  A
C740        C741   1.406       .  A
C740        N745   1.434       .  S
C741        C742   1.407       .  A
C741        H746   1.083       .  S
C742        C743   1.418       .  A
C743        N747   1.434       .  S
C744        C749   1.412       .  A
C744        C753   1.406       .  A
N745        O760   1.262       .  A
N745        O761   1.263       .  A
N747        O758   1.262       .  A
N747        O759   1.263       .  A
C749        C750   1.402       .  A
C749        N754   1.433       .  S
C750        C751   1.404       .  A
C750        H755   1.084       .  S
C751        C752   1.411       .  A
C752        C753   1.406       .  A
C752        N756   1.432       .  S
C753        H757   1.084       .  S
N754        O764   1.262       .  A
N754        O765   1.262       .  A
N756        O762   1.262       .  A
N756        O763   1.262       .  A
C766        C767   1.402       .  A
C766        C771   1.403       .  A
C766        H776   1.084       .  S
C767        C772   1.478       .  S
C767        C768   1.409       .  A
C768        C769   1.398       .  A
C768        N773   1.432       .  S
C769        C770   1.403       .  A
C769        H774   1.084       .  S
C770        C771   1.414       .  A
C771        N775   1.434       .  S
C772        C777   1.410       .  A
C772        C781   1.402       .  A
N773        O788   1.262       .  A
N773        O789   1.262       .  A
N775        O786   1.262       .  A
N775        O787   1.262       .  A
C777        C778   1.402       .  A
C777        N782   1.430       .  S
C778        C779   1.402       .  A
C778        H783   1.084       .  S
C779        C780   1.409       .  A
C780        C781   1.396       .  A
C780        N784   1.429       .  S
C781        H785   1.084       .  S
N782        O792   1.262       .  A
N782        O793   1.262       .  A
N784        O790   1.262       .  A
N784        O791   1.262       .  A
C794        C795   1.402       .  A
C794        C799   1.404       .  A
C794        H804   1.084       .  S
C795        C800   1.487       .  S
C795        C796   1.412       .  A
C796        C797   1.407       .  A
C796        N801   1.438       .  S
C797        C798   1.406       .  A
C797        H802   1.081       .  S
C798        C799   1.416       .  A
C799        N803   1.434       .  S
C800        C805   1.412       .  A
C800        C809   1.405       .  A
N801        O816   1.263       .  A
N801        O817   1.262       .  A
N803        O814   1.263       .  A
N803        O815   1.262       .  A
C805        C806   1.402       .  A
C805        N810   1.432       .  S
C806        C807   1.404       .  A
C806        H811   1.084       .  S
C807        C808   1.409       .  A
C808        C809   1.405       .  A
C808        N812   1.428       .  S
C809        H813   1.084       .  S
N810        O820   1.262       .  A
N810        O821   1.262       .  A
N812        O818   1.262       .  A
N812        O819   1.262       .  A
C822        C823   1.405       .  A
C822        C827   1.401       .  A
C822        H832   1.084       .  S
C823        C828   1.497       .  S
C823        C824   1.418       .  A
C824        C825   1.411       .  A
C824        N829   1.436       .  S
C825        C826   1.404       .  A
C825        H830   1.084       .  S
C826        C827   1.410       .  A
C827        N831   1.430       .  S
C828        C833   1.416       .  A
C828        C837   1.405       .  A
N829        O844   1.263       .  A
N829        O845   1.263       .  A
N831        O842   1.262       .  A
N831        O843   1.262       .  A
C833        C834   1.408       .  A
C833        N838   1.437       .  S
C834        C835   1.407       .  A
C834        H839   1.083       .  S
C835        C836   1.415       .  A
C836        C837   1.403       .  A
C836        N840   1.429       .  S
C837        H841   1.084       .  S
N838        O848   1.263       .  A
N838        O849   1.263       .  A
N840        O846   1.262       .  A
N840        O847   1.262       .  A
C850        C851   1.402       .  A
C850        C855   1.406       .  A
C850        H860   1.084       .  S
C851        C856   1.482       .  S
C851        C852   1.410       .  A
C852        C853   1.400       .  A
C852        N857   1.435       .  S
C853        C854   1.405       .  A
C853        H858   1.084       .  S
C854        C855   1.417       .  A
C855        N859   1.435       .  S
C856        C861   1.409       .  A
C856        C865   1.404       .  A
N857        O872   1.262       .  A
N857        O873   1.263       .  A
N859        O870   1.262       .  A
N859        O871   1.263       .  A
C861        C862   1.402       .  A
C861        N866   1.432       .  S
C862        C863   1.404       .  A
C862        H867   1.084       .  S
C863        C864   1.408       .  A
C864        C865   1.403       .  A
C864        N868   1.435       .  S
C865        H869   1.084       .  S
N866        O876   1.262       .  A
N866        O877   1.262       .  A
N868        O874   1.262       .  A
N868        O875   1.262       .  A
C878        C879   1.407       .  A
C878        C883   1.406       .  A
C878        H888   1.083       .  S
C879        C884   1.500       .  S
C879        C880   1.419       .  A
C880        C881   1.405       .  A
C880        N885   1.435       .  S
C881        C882   1.402       .  A
C881        H886   1.084       .  S
C882        C883   1.415       .  A
C883        N887   1.437       .  S
C884        C889   1.417       .  A
C884        C893   1.410       .  A
N885        O900   1.262       .  A
N885        O901   1.263       .  A
N887        O898   1.263       .  A
N887        O899   1.263       .  A
C889        C890   1.400       .  A
C889        N894   1.435       .  S
C890        C891   1.405       .  A
C890        H895   1.084       .  S
C891        C892   1.410       .  A
C892        C893   1.407       .  A
C892        N896   1.429       .  S
C893        H897   1.083       .  S
N894        O904   1.262       .  A
N894        O905   1.262       .  A
N896        O902   1.262       .  A
N896        O903   1.262       .  A
C906        C907   1.403       .  A
C906        C911   1.399       .  A
C906        H916   1.084       .  S
C907        C912   1.496       .  S
C907        C908   1.421       .  A
C908        C909   1.413       .  A
C908        N913   1.438       .  S
C909        C910   1.402       .  A
C909        H914   1.083       .  S
C910        C911   1.410       .  A
C911        N915   1.430       .  S
C912        C917   1.416       .  A
C912        C921   1.406       .  A
N913        O928   1.263       .  A
N913        O929   1.263       .  A
N915        O926   1.262       .  A
N915        O927   1.262       .  A
C917        C918   1.406       .  A
C917        N922   1.438       .  S
C918        C919   1.407       .  A
C918        H923   1.083       .  S
C919        C920   1.414       .  A
C920        C921   1.406       .  A
C920        N924   1.429       .  S
C921        H925   1.084       .  S
N922        O932   1.263       .  A
N922        O933   1.263       .  A
N924        O930   1.262       .  A
N924        O931   1.262       .  A
C934        C935   1.404       .  A
C934        C939   1.408       .  A
C934        H944   1.083       .  S
C935        C940   1.487       .  S
C935        C936   1.409       .  A
C936        C937   1.398       .  A
C936        N941   1.437       .  S
C937        C938   1.409       .  A
C937        H942   1.081       .  S
C938        C939   1.422       .  A
C939        N943   1.437       .  S
C940        C945   1.413       .  A
C940        C949   1.404       .  A
N941        O956   1.262       .  A
N941        O957   1.263       .  A
N943        O954   1.263       .  A
N943        O955   1.263       .  A
C945        C946   1.406       .  A
C945        N950   1.431       .  S
C946        C947   1.403       .  A
C946        H951   1.083       .  S
C947        C948   1.408       .  A
C948        C949   1.395       .  A
C948        N952   1.432       .  S
C949        H953   1.084       .  S
N950        O960   1.262       .  A
N950        O961   1.262       .  A
N952        O958   1.262       .  A
N952        O959   1.262       .  A
C962        C963   1.407       .  A
C962        C967   1.407       .  A
C962        H972   1.084       .  S
C963        C968   1.497       .  S
C963        C964   1.416       .  A
C964        C965   1.405       .  A
C964        N969   1.436       .  S
C965        C966   1.402       .  A
C965        H970   1.084       .  S
C966        C967   1.411       .  A
C967        N971   1.433       .  S
C968        C973   1.415       .  A
C968        C977   1.404       .  A
N969        O984   1.263       .  A
N969        O985   1.263       .  A
N971        O982   1.262       .  A
N971        O983   1.262       .  A
C973        C974   1.412       .  A
C973        N978   1.435       .  S
C974        C975   1.408       .  A
C974        H979   1.083       .  S
C975        C976   1.415       .  A
C976        C977   1.402       .  A
C976        N980   1.434       .  S
C977        H981   1.084       .  S
N978        O988   1.262       .  A
N978        O989   1.263       .  A
N980        O986   1.263       .  A
N980        O987   1.262       .  A
C990        C991   1.401       .  A
C990        C995   1.399       .  A
C990       H1000   1.084       .  S
C991        C996   1.475       .  S
C991        C992   1.408       .  A
C992        C993   1.401       .  A
C992        N997   1.433       .  S
C993        C994   1.406       .  A
C993        H998   1.084       .  S
C994        C995   1.416       .  A
C995        N999   1.435       .  S
C996       C1001   1.407       .  A
C996       C1005   1.403       .  A
N997       O1012   1.262       .  A
N997       O1013   1.262       .  A
N999       O1010   1.262       .  A
N999       O1011   1.262       .  A
C1001      C1002   1.394       .  A
C1001      N1006   1.432       .  S
C1002      C1003   1.402       .  A
C1002      H1007   1.084       .  S
C1003      C1004   1.413       .  A
C1004      C1005   1.405       .  A
C1004      N1008   1.434       .  S
C1005      H1009   1.084       .  S
N1006      O1016   1.262       .  A
N1006      O1017   1.262       .  A
N1008      O1014   1.262       .  A
N1008      O1015   1.262       .  A
C1018      C1019   1.403       .  A
C1018      C1023   1.407       .  A
C1018      H1028   1.084       .  S
C1019      C1024   1.492       .  S
C1019      C1020   1.411       .  A
C1020      C1021   1.406       .  A
C1020      N1025   1.432       .  S
C1021      C1022   1.406       .  A
C1021      H1026   1.083       .  S
C1022      C1023   1.416       .  A
C1023      N1027   1.431       .  S
C1024      C1029   1.410       .  A
C1024      C1033   1.405       .  A
N1025      O1040   1.262       .  A
N1025      O1041   1.262       .  A
N1027      O1038   1.262       .  A
N1027      O1039   1.262       .  A
C1029      C1030   1.406       .  A
C1029      N1034   1.432       .  S
C1030      C1031   1.407       .  A
C1030      H1035   1.084       .  S
C1031      C1032   1.412       .  A
C1032      C1033   1.408       .  A
C1032      N1036   1.431       .  S
C1033      H1037   1.084       .  S
N1034      O1044   1.262       .  A
N1034      O1045   1.262       .  A
N1036      O1042   1.262       .  A
N1036      O1043   1.262       .  A
C1046      C1047   1.406       .  A
C1046      C1051   1.402       .  A
C1046      H1056   1.084       .  S
C1047      C1052   1.480       .  S
C1047      C1048   1.411       .  A
C1048      C1049   1.397       .  A
C1048      N1053   1.434       .  S
C1049      C1050   1.400       .  A
C1049      H1054   1.084       .  S
C1050      C1051   1.406       .  A
C1051      N1055   1.428       .  S
C1052      C1057   1.407       .  A
C1052      C1061   1.401       .  A
N1053      O1068   1.262       .  A
N1053      O1069   1.262       .  A
N1055      O1066   1.262       .  A
N1055      O1067   1.261       .  A
C1057      C1058   1.401       .  A
C1057      N1062   1.431       .  S
C1058      C1059   1.406       .  A
C1058      H1063   1.084       .  S
C1059      C1060   1.416       .  A
C1060      C1061   1.401       .  A
C1060      N1064   1.435       .  S
C1061      H1065   1.084       .  S
N1062      O1072   1.262       .  A
N1062      O1073   1.262       .  A
N1064      O1070   1.263       .  A
N1064      O1071   1.262       .  A
C1074      C1075   1.406       .  A
C1074      C1079   1.406       .  A
C1074      H1084   1.083       .  S
C1075      C1080   1.508       .  S
C1075      C1076   1.419       .  A
C1076      C1077   1.414       .  A
C1076      N1081   1.436       .  S
C1077      C1078   1.407       .  A
C1077      H1082   1.083       .  S
C1078      C1079   1.419       .  A
C1079      N1083   1.438       .  S
C1080      C1085   1.420       .  A
C1080      C1089   1.409       .  A
N1081      O1096   1.263       .  A
N1081      O1097   1.263       .  A
N1083      O1094   1.263       .  A
N1083      O1095   1.263       .  A
C1085      C1086   1.410       .  A
C1085      N1090   1.438       .  S
C1086      C1087   1.405       .  A
C1086      H1091   1.084       .  S
C1087      C1088   1.413       .  A
C1088      C1089   1.408       .  A
C1088      N1092   1.430       .  S
C1089      H1093   1.083       .  S
N1090      O1100   1.263       .  A
N1090      O1101   1.263       .  A
N1092      O1098   1.262       .  A
N1092      O1099   1.262       .  A
C1102      C1103   1.403       .  A
C1102      C1107   1.401       .  A
C1102      H1112   1.084       .  S
C1103      C1108   1.485       .  S
C1103      C1104   1.411       .  A
C1104      C1105   1.405       .  A
C1104      N1109   1.435       .  S
C1105      C1106   1.408       .  A
C1105      H1110   1.084       .  S
C1106      C1107   1.416       .  A
C1107      N1111   1.434       .  S
C1108      C1113   1.414       .  A
C1108      C1117   1.407       .  A
N1109      O1124   1.262       .  A
N1109      O1125   1.263       .  A
N1111      O1122   1.262       .  A
N1111      O1123   1.262       .  A
C1113      C1114   1.398       .  A
C1113      N1118   1.436       .  S
C1114      C1115   1.401       .  A
C1114      H1119   1.084       .  S
C1115      C1116   1.407       .  A
C1116      C1117   1.404       .  A
C1116      N1120   1.428       .  S
C1117      H1121   1.084       .  S
N1118      O1128   1.262       .  A
N1118      O1129   1.263       .  A
N1120      O1126   1.262       .  A
N1120      O1127   1.262       .  A
C1130      C1131   1.405       .  A
C1130      C1135   1.402       .  A
C1130      H1140   1.084       .  S
C1131      C1136   1.492       .  S
C1131      C1132   1.417       .  A
C1132      C1133   1.408       .  A
C1132      N1137   1.439       .  S
C1133      C1134   1.404       .  A
C1133      H1138   1.084       .  S
C1134      C1135   1.411       .  A
C1135      N1139   1.432       .  S
C1136      C1141   1.415       .  A
C1136      C1145   1.407       .  A
N1137      O1152   1.263       .  A
N1137      O1153   1.263       .  A
N1139      O1150   1.262       .  A
N1139      O1151   1.262       .  A
C1141      C1142   1.401       .  A
C1141      N1146   1.437       .  S
C1142      C1143   1.406       .  A
C1142      H1147   1.084       .  S
C1143      C1144   1.414       .  A
C1144      C1145   1.408       .  A
C1144      N1148   1.433       .  S
C1145      H1149   1.084       .  S
N1146      O1156   1.263       .  A
N1146      O1157   1.263       .  A
N1148      O1154   1.262       .  A
N1148      O1155   1.262       .  A
C1158      C1159   1.403       .  A
C1158      C1163   1.399       .  A
C1158      H1168   1.084       .  S
C1159      C1164   1.488       .  S
C1159      C1160   1.418       .  A
C1160      C1161   1.409       .  A
C1160      N1165   1.438       .  S
C1161      C1162   1.402       .  A
C1161      H1166   1.084       .  S
C1162      C1163   1.408       .  A
C1163      N1167   1.430       .  S
C1164      C1169   1.416       .  A
C1164      C1173   1.404       .  A
N1165      O1180   1.262       .  A
N1165      O1181   1.263       .  A
N1167      O1178   1.262       .  A
N1167      O1179   1.262       .  A
C1169      C1170   1.403       .  A
C1169      N1174   1.438       .  S
C1170      C1171   1.406       .  A
C1170      H1175   1.083       .  S
C1171      C1172   1.414       .  A
C1172      C1173   1.403       .  A
C1172      N1176   1.429       .  S
C1173      H1177   1.084       .  S
N1174      O1184   1.263       .  A
N1174      O1185   1.263       .  A
N1176      O1182   1.262       .  A
N1176      O1183   1.262       .  A
C1186      C1187   1.407       .  A
C1186      C1191   1.408       .  A
C1186      H1196   1.083       .  S
C1187      C1192   1.498       .  S
C1187      C1188   1.416       .  A
C1188      C1189   1.404       .  A
C1188      N1193   1.436       .  S
C1189      C1190   1.404       .  A
C1189      H1194   1.084       .  S
C1190      C1191   1.414       .  A
C1191      N1195   1.432       .  S
C1192      C1197   1.415       .  A
C1192      C1201   1.406       .  A
N1193      O1208   1.262       .  A
N1193      O1209   1.263       .  A
N1195      O1206   1.262       .  A
N1195      O1207   1.262       .  A
C1197      C1198   1.408       .  A
C1197      N1202   1.432       .  S
C1198      C1199   1.403       .  A
C1198      H1203   1.084       .  S
C1199      C1200   1.409       .  A
C1200      C1201   1.402       .  A
C1200      N1204   1.431       .  S
C1201      H1205   1.084       .  S
N1202      O1212   1.262       .  A
N1202      O1213   1.262       .  A
N1204      O1210   1.262       .  A
N1204      O1211   1.262       .  A
C1214      C1215   1.406       .  A
C1214      C1219   1.408       .  A
C1214      H1224   1.084       .  S
C1215      C1220   1.498       .  S
C1215      C1216   1.413       .  A
C1216      C1217   1.403       .  A
C1216      N1221   1.433       .  S
C1217      C1218   1.407       .  A
C1217      H1222   1.083       .  S
C1218      C1219   1.417       .  A
C1219      N1223   1.433       .  S
C1220      C1225   1.416       .  A
C1220      C1229   1.408       .  A
N1221      O1236   1.262       .  A
N1221      O1237   1.262       .  A
N1223      O1234   1.262       .  A
N1223      O1235   1.262       .  A
C1225      C1226   1.404       .  A
C1225      N1230   1.434       .  S
C1226      C1227   1.403       .  A
C1226      H1231   1.084       .  S
C1227      C1228   1.410       .  A
C1228      C1229   1.407       .  A
C1228      N1232   1.429       .  S
C1229      H1233   1.084       .  S
N1230      O1240   1.262       .  A
N1230      O1241   1.262       .  A
N1232      O1238   1.262       .  A
N1232      O1239   1.262       .  A
C1242      C1243   1.405       .  A
C1242      C1247   1.406       .  A
C1242      H1252   1.084       .  S
C1243      C1248   1.498       .  S
C1243      C1244   1.418       .  A
C1244      C1245   1.409       .  A
C1244      N1249   1.438       .  S
C1245      C1246   1.407       .  A
C1245      H1250   1.083       .  S
C1246      C1247   1.416       .  A
C1247      N1251   1.432       .  S
C1248      C1253   1.419       .  A
C1248      C1257   1.404       .  A
N1249      O1264   1.263       .  A
N1249      O1265   1.263       .  A
N1251      O1262   1.263       .  A
N1251      O1263   1.262       .  A
C1253      C1254   1.412       .  A
C1253      N1258   1.438       .  S
C1254      C1255   1.404       .  A
C1254      H1259   1.084       .  S
C1255      C1256   1.413       .  A
C1256      C1257   1.405       .  A
C1256      N1260   1.437       .  S
C1257      H1261   1.084       .  S
N1258      O1268   1.262       .  A
N1258      O1269   1.263       .  A
N1260      O1266   1.262       .  A
N1260      O1267   1.263       .  A
C1270      C1271   1.407       .  A
C1270      C1275   1.406       .  A
C1270      H1280   1.083       .  S
C1271      C1276   1.496       .  S
C1271      C1272   1.418       .  A
C1272      C1273   1.405       .  A
C1272      N1277   1.437       .  S
C1273      C1274   1.401       .  A
C1273      H1278   1.084       .  S
C1274      C1275   1.411       .  A
C1275      N1279   1.436       .  S
C1276      C1281   1.414       .  A
C1276      C1285   1.409       .  A
N1277      O1292   1.262       .  A
N1277      O1293   1.263       .  A
N1279      O1290   1.262       .  A
N1279      O1291   1.263       .  A
C1281      C1282   1.401       .  A
C1281      N1286   1.433       .  S
C1282      C1283   1.404       .  A
C1282      H1287   1.084       .  S
C1283      C1284   1.412       .  A
C1284      C1285   1.407       .  A
C1284      N1288   1.433       .  S
C1285      H1289   1.084       .  S
N1286      O1296   1.262       .  A
N1286      O1297   1.262       .  A
N1288      O1294   1.262       .  A
N1288      O1295   1.262       .  A
C1298      C1299   1.405       .  A
C1298      C1303   1.405       .  A
C1298      H1308   1.084       .  S
C1299      C1304   1.504       .  S
C1299      C1300   1.417       .  A
C1300      C1301   1.413       .  A
C1300      N1305   1.436       .  S
C1301      C1302   1.408       .  A
C1301      H1306   1.083       .  S
C1302      C1303   1.418       .  A
C1303      N1307   1.431       .  S
C1304      C1309   1.420       .  A
C1304      C1313   1.407       .  A
N1305      O1320   1.262       .  A
N1305      O1321   1.263       .  A
N1307      O1318   1.262       .  A
N1307      O1319   1.262       .  A
C1309      C1310   1.412       .  A
C1309      N1314   1.436       .  S
C1310      C1311   1.403       .  A
C1310      H1315   1.084       .  S
C1311      C1312   1.410       .  A
C1312      C1313   1.405       .  A
C1312      N1316   1.429       .  S
C1313      H1317   1.083       .  S
N1314      O1324   1.263       .  A
N1314      O1325   1.262       .  A
N1316      O1322   1.262       .  A
N1316      O1323   1.262       .  A
C1326      C1327   1.404       .  A
C1326      C1331   1.403       .  A
C1326      H1336   1.084       .  S
C1327      C1332   1.503       .  S
C1327      C1328   1.421       .  A
C1328      C1329   1.415       .  A
C1328      N1333   1.438       .  S
C1329      C1330   1.405       .  A
C1329      H1334   1.083       .  S
C1330      C1331   1.414       .  A
C1331      N1335   1.438       .  S
C1332      C1337   1.419       .  A
C1332      C1341   1.407       .  A
N1333      O1348   1.262       .  A
N1333      O1349   1.263       .  A
N1335      O1346   1.263       .  A
N1335      O1347   1.263       .  A
C1337      C1338   1.410       .  A
C1337      N1342   1.437       .  S
C1338      C1339   1.408       .  A
C1338      H1343   1.083       .  S
C1339      C1340   1.414       .  A
C1340      C1341   1.405       .  A
C1340      N1344   1.429       .  S
C1341      H1345   1.084       .  S
N1342      O1352   1.262       .  A
N1342      O1353   1.263       .  A
N1344      O1350   1.262       .  A
N1344      O1351   1.262       .  A
