geometry optimzed in LAMMPS
_audit_creation_date              2020-11-30 
_audit_creation_method            'lammps2cif' 
_symmetry_space_group_name_H-M    'P1' 
_symmetry_Int_Tables_number       1 
_symmetry_cell_setting            triclinic 
loop_ 
_symmetry_equiv_pos_as_xyz 
  x,y,z 
_cell_length_a                    49.03970539867791 
_cell_length_b                    50.4954214262119 
_cell_length_c                    50.109730066363596 
_cell_angle_alpha                 89.90938887353347 
_cell_angle_beta                  90.31909065686246 
_cell_angle_gamma                 90.15667068513294 
loop_ 
_atom_site_label 
_atom_site_type_symbol 
_atom_site_fract_x 
_atom_site_fract_y 
_atom_site_fract_z 
_atom_site_charge 
C1          C  0.17327015  0.16379401  0.50963644     0.00130
C2          C  0.17128228  0.16239797  0.48210485     0.00130
C3          C  0.18196190  0.49390129  0.15083058     0.00130
C4          C  0.18175757  0.52120357  0.14989562     0.00130
C5          C  0.51410378  0.17363237  0.17658668     0.00130
C6          C  0.54200472  0.17361007  0.17358705     0.00130
C7          C  0.23106685  0.82108138  0.49133842     0.00130
C8          C  0.22171919  0.82251019  0.51739739     0.00130
C9          C  0.86035063  0.17648280  0.48008366     0.00130
C10         C  0.86030791  0.18293893  0.50683280     0.00130
C11         C  0.88962177  0.86667385  0.49205076     0.00130
C12         C  0.89699398  0.87033687  0.51878710     0.00130
C13         C  0.54201247  0.18439792  0.82754604     0.00130
C14         C  0.51421484  0.18236610  0.82482932     0.00130
C15         C  0.19556885  0.52648335  0.83771229     0.00130
C16         C  0.19776350  0.49936985  0.83871547     0.00130
C17         C  0.50857399  0.85058597  0.16047221     0.00130
C18         C  0.53670683  0.84900348  0.15848784     0.00130
C19         C  0.86199255  0.50773303  0.16904131     0.00130
C20         C  0.86704177  0.53414220  0.16385375     0.00130
C21         C  0.86951667  0.50411446  0.84393447     0.00130
C22         C  0.87458384  0.53090435  0.84349056     0.00130
C23         C  0.51097633  0.85891243  0.83973622     0.00130
C24         C  0.53800705  0.85866993  0.83225644     0.00130
C25         C  0.64151122  0.76264252  0.91471849     0.02690
C26         C  0.61912858  0.78045429  0.91372026    -0.13460
C27         C  0.61585669  0.79743884  0.89136962     0.00190
C28         C  0.63481426  0.79630598  0.87073203    -0.11980
C29         C  0.65302551  0.77533103  0.86906060     0.02690
C30         C  0.65782323  0.75986136  0.89185368    -0.11400
H31         H  0.60404422  0.78029306  0.92941425     0.08280
H32         H  0.63094741  0.80817547  0.85305656     0.05810
H33         H  0.67248562  0.74386218  0.89084992     0.05660
C34         C  0.81227507  0.61140466  0.89625580     0.02690
C35         C  0.81733362  0.63220172  0.87824349    -0.13460
C36         C  0.80187230  0.65506912  0.87905738     0.00190
C37         C  0.78501405  0.65958658  0.90041582    -0.11980
C38         C  0.77980314  0.64036911  0.91980441     0.02690
C39         C  0.79325995  0.61546625  0.91737251    -0.11400
H40         H  0.82991997  0.62887913  0.86083026     0.08280
H41         H  0.77221721  0.67706523  0.89931647     0.05810
H42         H  0.78848206  0.59941578  0.93078078     0.05660
C43         C  0.93777271  0.59263866  0.77284213     0.02690
C44         C  0.96072853  0.59715976  0.75606477    -0.13460
C45         C  0.96158979  0.62049558  0.74000630     0.00190
C46         C  0.94011399  0.63848349  0.74131089    -0.11980
C47         C  0.91734512  0.63308629  0.75655480     0.02690
C48         C  0.91661680  0.61106029  0.77300854    -0.11400
H49         H  0.97681997  0.58259699  0.75480399     0.08280
H50         H  0.94004664  0.65582379  0.72846311     0.05810
H51         H  0.89843417  0.60728206  0.78470835     0.05660
C52         C  0.97705750  0.76402517  0.61067368     0.02690
C53         C  0.97963192  0.78125079  0.58803971    -0.13460
C54         C  0.96037253  0.80220218  0.58423157     0.00190
C55         C  0.93994792  0.80575046  0.60307309    -0.11980
C56         C  0.93607713  0.78750062  0.62322422     0.02690
C57         C  0.95481524  0.76746873  0.62765340    -0.11400
H58         H  0.99573672  0.77829947  0.57369559     0.08280
H59         H  0.92419814  0.82049121  0.59957548     0.05810
H60         H  0.95091634  0.75322105  0.64343465     0.05660
C61         C  0.76783975  0.94102445  0.59022163     0.02690
C62         C  0.79625847  0.93925810  0.58423412    -0.13460
C63         C  0.80742061  0.91489542  0.57504253     0.00190
C64         C  0.79015254  0.89277798  0.57336323    -0.11980
C65         C  0.76264608  0.89423745  0.58005341     0.02690
C66         C  0.75136814  0.91865327  0.58627752    -0.11400
H67         H  0.80946668  0.95618482  0.58740921     0.08280
H68         H  0.79853431  0.87378123  0.56766124     0.05810
H69         H  0.72988397  0.91941918  0.59113177     0.05660
C70         C  0.61028379  0.94533127  0.71108124     0.02690
C71         C  0.59874196  0.94063142  0.73677171    -0.13460
C72         C  0.58113220  0.91838497  0.74083340     0.00190
C73         C  0.57681048  0.90124263  0.71904574    -0.11980
C74         C  0.59118438  0.90417490  0.69540503     0.02690
C75         C  0.60426575  0.92796428  0.69017275    -0.11400
H76         H  0.60386589  0.95374298  0.75305636     0.08280
H77         H  0.56707488  0.88219654  0.72230883     0.05810
H78         H  0.61551797  0.92976611  0.67164329     0.05660
O79         O  0.71798678  0.71064097  0.73181236    -0.88780
C80         C  0.70344997  0.78806446  0.73218346     0.87250
Mg81       Mg  0.75788740  0.69752953  0.73601419     1.58150
O82         O  0.69530061  0.75313038  0.67262066    -0.88510
O83         O  0.67985509  0.70615565  0.70944312    -0.75840
C84         C  0.82887637  0.77287553  0.65925146     0.92300
O85         O  0.74774634  0.75651854  0.77011381    -0.75660
O86         O  0.83044037  0.76329300  0.68252857    -0.83160
Mg87       Mg  0.70613523  0.73783075  0.76281110     1.57960
C88         C  0.73058428  0.79160105  0.60868065     0.92220
O89         O  0.66539131  0.71932333  0.75753722    -0.81420
H90         H  0.68281130  0.72179582  0.65131503    -0.06770
C91         C  0.76248280  0.79791293  0.68610582     0.87160
O92         O  0.76402476  0.69139830  0.69181062    -0.75930
O93         O  0.69849010  0.76415388  0.73013711    -0.88700
O94         O  0.71058803  0.78359482  0.62236973    -0.81510
C95         C  0.65102396  0.80915917  0.68029591     0.92340
C96         C  0.64795714  0.73679873  0.76200130     0.92190
Mg97       Mg  0.76478534  0.75368639  0.64549403     1.57950
O98         O  0.80718971  0.77267489  0.64511643    -0.81430
O99         O  0.72220781  0.73257758  0.64441734    -0.75670
O100        O  0.65102475  0.79258774  0.69941699    -0.81510
O101        O  0.71579971  0.71097436  0.79767680    -0.83220
O102        O  0.82452656  0.71423562  0.72001604    -0.81540
C103        C  0.69925689  0.73530853  0.65609192     0.86630
O104        O  0.77648944  0.73052655  0.67835877    -0.88680
O105        O  0.74937701  0.78173983  0.67278181    -0.88790
O106        O  0.77998568  0.79044718  0.70309261    -0.75840
Mg107      Mg  0.66631988  0.75004767  0.70492947     1.57970
O108        O  0.66597803  0.80630026  0.66009610    -0.83220
H109        H  0.70403601  0.67512823  0.72015903    -0.06940
O110        O  0.76943892  0.73872824  0.73699625    -0.88490
H111        H  0.78825697  0.76172035  0.76394843    -0.06770
H112        H  0.77734005  0.69898675  0.65440570    -0.06950
C113        C  0.76950602  0.75241572  0.75738409     0.86600
C114        C  0.70101732  0.69632535  0.72045073     0.87190
C115        C  0.77350028  0.70666104  0.67415561     0.87240
H116        H  0.75775043  0.81875051  0.68436211    -0.06930
O117        O  0.70737824  0.80234643  0.71160937    -0.75950
Mg118      Mg  0.79928325  0.75021879  0.71017545     1.58000
H119        H  0.70431713  0.79703748  0.75174223    -0.06940
C120        C  0.73927910  0.70058339  0.79911883     0.92220
O121        O  0.79995135  0.68422928  0.74198026    -0.83180
C122        C  0.82242249  0.69306810  0.73351594     0.92280
O123        O  0.63832636  0.74958538  0.74231565    -0.83170
Mg124      Mg  0.70866155  0.79268972  0.66650392     1.58180
O125        O  0.75426992  0.69751534  0.77910190    -0.81500
O126        O  0.75368501  0.78066089  0.61110957    -0.83190
C127        C  0.69059536  0.68376279  0.98160942     0.00130
C128        C  0.69299958  0.67926170  0.00875360     0.00130
C129        C  0.70323441  0.00095180  0.66573773     0.00130
C130        C  0.70450853  0.02814774  0.66814213     0.00130
C131        C  0.02789615  0.67192202  0.66036630     0.00130
C132        C  0.05209491  0.66207681  0.65064593     0.00130
C133        C  0.78465873  0.44886126  0.89756057     0.02690
C134        C  0.79170017  0.42718512  0.88199876    -0.13460
C135        C  0.78154707  0.40228133  0.88743550     0.00190
C136        C  0.76027816  0.39912584  0.90543675    -0.11980
C137        C  0.75201879  0.42013568  0.92199061     0.02690
C138        C  0.76486943  0.44546952  0.91827371    -0.11400
H139        H  0.80808801  0.42910374  0.86759574     0.08280
H140        H  0.75235867  0.37931196  0.90867319     0.05810
H141        H  0.76043928  0.46166324  0.93167108     0.05660
C142        C  0.59953435  0.27032677  0.88135078     0.02690
C143        C  0.62204815  0.27262143  0.86445092    -0.13460
C144        C  0.64288921  0.29057894  0.86995962     0.00190
C145        C  0.63960425  0.30906260  0.89015290    -0.11980
C146        C  0.62003604  0.30500575  0.90990142     0.02690
C147        C  0.59913598  0.28570136  0.90530871    -0.11400
H148        H  0.62467298  0.25856140  0.84831709     0.08280
H149        H  0.65618130  0.32283960  0.89410060     0.05810
H150        H  0.58363657  0.28217302  0.92019488     0.05660
C151        C  0.94377458  0.44136644  0.77856675     0.02690
C152        C  0.95273403  0.41928959  0.79321874    -0.13460
C153        C  0.96592402  0.39859742  0.78015240     0.00190
C154        C  0.97936772  0.40447877  0.75656529    -0.11980
C155        C  0.96761557  0.42320329  0.73940134     0.02690
C156        C  0.94945246  0.44222598  0.75059126    -0.11400
H157        H  0.94422898  0.41562939  0.81282014     0.08280
H158        H  0.99160429  0.38896544  0.74782202     0.05810
H159        H  0.93945955  0.45664482  0.73790753     0.05660
C160        C  0.91086438  0.26075570  0.57093256     0.02690
C161        C  0.89473781  0.25479474  0.59319278    -0.13460
C162        C  0.90118216  0.26504399  0.61822546     0.00190
C163        C  0.92134780  0.28443956  0.62028631    -0.11980
C164        C  0.93740181  0.29147728  0.59839182     0.02690
C165        C  0.93279191  0.27886997  0.57359143    -0.11400
H166        H  0.87909870  0.23961770  0.59163723     0.08280
H167        H  0.92689624  0.29200900  0.63982038     0.05810
H168        H  0.94657901  0.28223098  0.55711752     0.05660
C169        C  0.77990469  0.13617475  0.57811565     0.02690
C170        C  0.76634158  0.11121610  0.57786255    -0.13460
C171        C  0.74927112  0.10409005  0.59947517     0.00190
C172        C  0.74491119  0.12233915  0.61993524    -0.11980
C173        C  0.76238091  0.14372629  0.62267908     0.02690
C174        C  0.77769286  0.15207387  0.60098766    -0.11400
H175        H  0.76967449  0.09726499  0.56186544     0.08280
H176        H  0.73315263  0.11621283  0.63721293     0.05810
H177        H  0.79099857  0.16909602  0.60352143     0.05660
C178        C  0.61509672  0.11273244  0.77731217     0.02690
C179        C  0.62001453  0.09825192  0.75360336    -0.13460
C180        C  0.64715677  0.09095717  0.74714846     0.00190
C181        C  0.66853249  0.09919669  0.76393599    -0.11980
C182        C  0.66333354  0.11217255  0.78787672     0.02690
C183        C  0.63669449  0.11828009  0.79461812    -0.11400
H184        H  0.60313654  0.09259619  0.74081616     0.08280
H185        H  0.68944959  0.09515076  0.75836890     0.05810
H186        H  0.63290524  0.12920277  0.81286552     0.05660
O187        O  0.78398267  0.22158507  0.80654585    -0.88780
C188        C  0.84273600  0.23879700  0.85943152     0.87250
Mg189      Mg  0.78602097  0.18966249  0.78005883     1.58150
O190        O  0.83443197  0.27894945  0.80301794    -0.88510
O191        O  0.77301984  0.26341484  0.80625936    -0.75840
C192        C  0.89445315  0.21065161  0.71841371     0.92300
O193        O  0.82480048  0.18078208  0.83506292    -0.75660
O194        O  0.88189118  0.18897203  0.72139833    -0.83160
Mg195      Mg  0.79210601  0.21164610  0.84695175     1.57960
C196        C  0.90457171  0.30468041  0.76639059     0.92220
O197        O  0.75919979  0.24035538  0.85887606    -0.81420
H198        H  0.81298903  0.30644365  0.78318378    -0.06770
C199        C  0.89393667  0.22431296  0.79757254     0.87160
O200        O  0.79610686  0.21936027  0.74628105    -0.75930
O201        O  0.82148964  0.24165731  0.84633078    -0.88700
O202        O  0.88757488  0.30607799  0.78516200    -0.81510
C203        C  0.84872810  0.31662664  0.85618948     0.92340
C204        C  0.75515843  0.26411909  0.86598146     0.92190
Mg205      Mg  0.87179630  0.25438028  0.75112285     1.57950
O206        O  0.90123771  0.22343542  0.73905775    -0.81430
O207        O  0.84027371  0.28645045  0.76061237    -0.75670
O208        O  0.83660003  0.29575870  0.86307418    -0.81510
O209        O  0.75906799  0.18129433  0.84616424    -0.83220
O210        O  0.82325954  0.17051002  0.72976985    -0.81540
C211        C  0.82848834  0.29132186  0.78251101     0.86630
O212        O  0.83996609  0.22543367  0.75148650    -0.88680
O213        O  0.87970537  0.24372640  0.79172402    -0.88790
O214        O  0.88906550  0.20150015  0.78762705    -0.75840
Mg215      Mg  0.80588552  0.27957509  0.83446608     1.57970
O216        O  0.86881215  0.31529305  0.84062345    -0.83220
H217        H  0.75131493  0.23511632  0.78666645    -0.06940
O218        O  0.82784116  0.18418012  0.79148581    -0.88490
H219        H  0.85015932  0.15828077  0.81252290    -0.06770
H220        H  0.81879733  0.24317466  0.72223815    -0.06950
C221        C  0.83491480  0.17370151  0.81279654     0.86600
C222        C  0.76853823  0.23962164  0.79945468     0.87190
C223        C  0.81852018  0.22989083  0.73917941     0.87240
H224        H  0.91095601  0.22678997  0.81115237    -0.06930
O225        O  0.86490860  0.24983832  0.85236485    -0.75950
Mg226      Mg  0.85518201  0.18601234  0.75861439     1.58000
H227        H  0.84248113  0.22658065  0.87716388    -0.06940
C228        C  0.75672900  0.16305678  0.82906779     0.92220
O229        O  0.78597296  0.15703556  0.75039117    -0.83180
C230        C  0.79979955  0.15983986  0.72939095     0.92280
O231        O  0.77414667  0.28118457  0.86617545    -0.83170
Mg232      Mg  0.87549914  0.27742819  0.81703683     1.58180
O233        O  0.77488587  0.15928126  0.81164951    -0.81500
O234        O  0.90635085  0.28441768  0.75166550    -0.83190
C235        C  0.43668941  0.74696668  0.93346188     0.02690
C236        C  0.45870715  0.75891561  0.91968548    -0.13460
C237        C  0.45350665  0.78080973  0.90244764     0.00190
C238        C  0.42661150  0.78978258  0.89896270    -0.11980
C239        C  0.40528308  0.77937859  0.91419976     0.02690
C240        C  0.41075321  0.75796039  0.93082294    -0.11400
H241        H  0.47931523  0.75186781  0.92274731     0.08280
H242        H  0.42260980  0.80547622  0.88474540     0.05810
H243        H  0.39463711  0.75006485  0.94318056     0.05660
C244        C  0.29853229  0.62112668  0.92431360     0.02690
C245        C  0.28829721  0.59866663  0.91049048    -0.13460
C246        C  0.25980680  0.59372963  0.90936747     0.00190
C247        C  0.24201265  0.61109286  0.92232191    -0.11980
C248        C  0.25128370  0.63494956  0.93355327     0.02690
C249        C  0.27965867  0.63875761  0.93556377    -0.11400
H250        H  0.30220995  0.58532757  0.90059917     0.08280
H251        H  0.22042984  0.60683237  0.92135061     0.05810
H252        H  0.28751515  0.65624662  0.94505730     0.05660
C253        C  0.41611001  0.95730779  0.74951293     0.02690
C254        C  0.38942980  0.95195648  0.75783447    -0.13460
C255        C  0.38397874  0.93245761  0.77652950     0.00190
C256        C  0.40550322  0.92037849  0.79006485    -0.11980
C257        C  0.43263344  0.92518927  0.78266965     0.02690
C258        C  0.43807898  0.94403003  0.76228174    -0.11400
H259        H  0.37231992  0.96127036  0.74774506     0.08280
H260        H  0.40103445  0.90547878  0.80502695     0.05810
H261        H  0.45886124  0.94773309  0.75617624     0.05660
C262        C  0.29768805  0.88096082  0.58028989     0.02690
C263        C  0.31390657  0.86005225  0.59009761    -0.13460
C264        C  0.33299574  0.86442228  0.61024722     0.00190
C265        C  0.34135842  0.89029063  0.61559105    -0.11980
C266        C  0.32716719  0.91193818  0.60481910     0.02690
C267        C  0.30468603  0.90728475  0.58751532    -0.11400
H268        H  0.30807981  0.83972089  0.58595618     0.08280
H269        H  0.35619000  0.89359698  0.63139555     0.05810
H270        H  0.29192752  0.92365396  0.58130134     0.05660
C271        C  0.10944115  0.61254006  0.73374373     0.02690
C272        C  0.11101468  0.58786021  0.74720885    -0.13460
C273        C  0.12374838  0.58644880  0.77266894     0.00190
C274        C  0.13332764  0.60964127  0.78463253    -0.11980
C275        C  0.13497574  0.63293784  0.77010224     0.02690
C276        C  0.12079454  0.63510018  0.74610605    -0.11400
H277        H  0.10411867  0.56996704  0.73738298     0.08280
H278        H  0.14521258  0.60818905  0.80295035     0.05810
H279        H  0.12149553  0.65389273  0.73567511     0.05660
C280        C  0.16873855  0.73462996  0.56726929     0.02690
C281        C  0.14163632  0.72642116  0.57092340    -0.13460
C282        C  0.13533231  0.70935322  0.59221401     0.00190
C283        C  0.15587256  0.70079368  0.60982498    -0.11980
C284        C  0.18277243  0.70910656  0.60652568     0.02690
C285        C  0.18900640  0.72546510  0.58488378    -0.11400
H286        H  0.12556309  0.73403771  0.55816151     0.08280
H287        H  0.15038479  0.68937201  0.62734736     0.05810
H288        H  0.20970700  0.73278003  0.58293638     0.05660
O289        O  0.26399752  0.79532304  0.82047679    -0.88780
C290        C  0.33158852  0.78056103  0.77579435     0.87250
Mg291      Mg  0.25212049  0.76977337  0.85230043     1.58150
O292        O  0.26864045  0.76934150  0.74408781    -0.88510
O293        O  0.24779241  0.81261229  0.78360954    -0.75840
C294        C  0.24367263  0.66019613  0.79665681     0.92300
O295        O  0.31993671  0.76608456  0.83827695    -0.75660
O296        O  0.24980119  0.66296543  0.82103919    -0.83160
Mg297      Mg  0.30629492  0.80648283  0.82125917     1.57960
C298        C  0.25238069  0.70663771  0.69976895     0.92220
O299        O  0.29799757  0.84871485  0.80702103    -0.81420
H300        H  0.23388939  0.78377594  0.72887063    -0.06770
C301        C  0.30547025  0.70545508  0.77466851     0.87160
O302        O  0.21878619  0.75097866  0.82574655    -0.75930
O303        O  0.30965893  0.79085987  0.78201894    -0.88700
O304        O  0.27028848  0.72445433  0.70294324    -0.81510
C305        C  0.31724780  0.79514880  0.69984860     0.92340
C306        C  0.29985611  0.86040722  0.78466053     0.92190
Mg307      Mg  0.24521332  0.70725653  0.76177650     1.57950
O308        O  0.25971387  0.66933065  0.77936907    -0.81430
O309        O  0.23067695  0.74652887  0.74389299    -0.75670
O310        O  0.31648609  0.80642107  0.72245980    -0.81510
O311        O  0.30322576  0.82257688  0.86301030    -0.83220
O312        O  0.23676120  0.70531932  0.86394709    -0.81540
C313        C  0.24416919  0.76727885  0.73828219     0.86630
O314        O  0.24189386  0.72272209  0.80177267    -0.88680
O315        O  0.28778324  0.71822445  0.76252718    -0.88790
O316        O  0.30245660  0.69857088  0.79895492    -0.75840
Mg317      Mg  0.28242304  0.80761777  0.75339412     1.57970
O318        O  0.31143214  0.77081442  0.69715011    -0.83220
H319        H  0.22731370  0.81248426  0.81871408    -0.06940
O320        O  0.28289611  0.74200109  0.83953535    -0.88490
H321        H  0.31886330  0.72846438  0.85267645    -0.06770
H322        H  0.20139221  0.72648446  0.79830527    -0.06950
C323        C  0.30753872  0.74472983  0.84403457     0.86600
C324        C  0.24575746  0.80721277  0.80828954     0.87190
C325        C  0.21993887  0.73287704  0.80816012     0.87240
H326        H  0.32401970  0.70014473  0.76444232    -0.06930
O327        O  0.33279130  0.76251306  0.75816274    -0.75950
Mg328      Mg  0.26833649  0.70348844  0.83051228     1.58000
H329        H  0.35009651  0.78681674  0.78580403    -0.06940
C330        C  0.30069572  0.80589108  0.88172175     0.92220
O331        O  0.23946484  0.74317760  0.88646277    -0.83180
C332        C  0.23240426  0.71905295  0.88479950     0.92280
O333        O  0.29630039  0.84804542  0.76293963    -0.83170
Mg334      Mg  0.30019027  0.74322424  0.73107004     1.58180
O335        O  0.28370312  0.78706396  0.87981459    -0.81500
O336        O  0.24566710  0.69143431  0.71894793    -0.83190
C337        C  0.36860269  0.03065846  0.64887790     0.00130
C338        C  0.37402923  0.00458293  0.65592999     0.00130
C339        C  0.44301296  0.25475164  0.88019014     0.02690
C340        C  0.41982994  0.25591784  0.86377827    -0.13460
C341        C  0.39979879  0.27463346  0.86822602     0.00190
C342        C  0.40257222  0.29246088  0.88905162    -0.11980
C343        C  0.42260360  0.28875879  0.90866039     0.02690
C344        C  0.44377606  0.27023587  0.90387538    -0.11400
H345        H  0.41748224  0.24232277  0.84716217     0.08280
H346        H  0.38612220  0.30635107  0.89264409     0.05810
H347        H  0.46011817  0.26785373  0.91820693     0.05660
C348        C  0.28398543  0.40060050  0.92926891     0.02690
C349        C  0.26902639  0.42462659  0.92967760    -0.13460
C350        C  0.25151987  0.43079751  0.90799934     0.00190
C351        C  0.24976120  0.41355944  0.88642300    -0.11980
C352        C  0.26629782  0.39147807  0.88481340     0.02690
C353        C  0.28274304  0.38446266  0.90651953    -0.11400
H354        H  0.27139225  0.43834518  0.94611243     0.08280
H355        H  0.23792722  0.41939594  0.86899751     0.05810
H356        H  0.29590184  0.36730269  0.90503263     0.05660
C357        C  0.26894680  0.06112807  0.59556367     0.02690
C358        C  0.25785254  0.07251577  0.57177033    -0.13460
C359        C  0.23292465  0.08704103  0.57296271     0.00190
C360        C  0.22089161  0.09147170  0.59780751    -0.11980
C361        C  0.23377798  0.08316684  0.62102967     0.02690
C362        C  0.25453805  0.06471860  0.61946367    -0.11400
H363        H  0.26824382  0.07046032  0.55293689     0.08280
H364        H  0.20454336  0.10582916  0.59940900     0.05810
H365        H  0.26380730  0.05868534  0.63823507     0.05660
C366        C  0.44592520  0.10996334  0.76589656     0.02690
C367        C  0.44101439  0.10162519  0.73913461    -0.13460
C368        C  0.41412427  0.09489516  0.73053758     0.00190
C369        C  0.39280909  0.09687713  0.74912796    -0.11980
C370        C  0.39736938  0.10599618  0.77511462     0.02690
C371        C  0.42409029  0.10983055  0.78378557    -0.11400
H372        H  0.45761558  0.10101826  0.72506201     0.08280
H373        H  0.37214359  0.09289497  0.74278127     0.05810
H374        H  0.42728471  0.11666283  0.80406797     0.05660
C375        C  0.12405249  0.23751621  0.58166291     0.02690
C376        C  0.14182331  0.22906572  0.60156949    -0.13460
C377        C  0.14579566  0.24395508  0.62434059     0.00190
C378        C  0.12549596  0.26174841  0.63178773    -0.11980
C379        C  0.10621858  0.27186857  0.61290927     0.02690
C380        C  0.10685541  0.25986150  0.58675175    -0.11400
H381        H  0.15643728  0.21370365  0.59678646     0.08280
H382        H  0.12701378  0.26895116  0.65195875     0.05810
H383        H  0.09553495  0.26809586  0.57024830     0.05660
C384        C  0.10716465  0.41416234  0.72854623     0.02690
C385        C  0.11387139  0.43241204  0.74927670    -0.13460
C386        C  0.14096199  0.43288432  0.76007881     0.00190
C387        C  0.16013020  0.41487201  0.74982767    -0.11980
C388        C  0.15364770  0.39826959  0.72864622     0.02690
C389        C  0.12733417  0.39742655  0.71882617    -0.11400
H390        H  0.09879353  0.44650855  0.75584384     0.08280
H391        H  0.18086701  0.41458712  0.75744277     0.05810
H392        H  0.12286809  0.38444786  0.70214153     0.05660
O393        O  0.25450340  0.24399264  0.69735302    -0.88780
C394        C  0.32436412  0.21637919  0.73215875     0.87250
Mg395      Mg  0.24908241  0.28337440  0.68201870     1.58150
O396        O  0.26654927  0.22771689  0.77242133    -0.88510
O397        O  0.23363735  0.21397635  0.72118126    -0.75840
C398        C  0.28636720  0.35238060  0.78235031     0.92300
O399        O  0.31545834  0.26383576  0.68356680    -0.75660
O400        O  0.28101031  0.35778242  0.75825181    -0.83160
Mg401      Mg  0.29115774  0.22448059  0.68356079     1.57960
C402        C  0.28841040  0.26939361  0.83680678     0.92220
O403        O  0.27106747  0.18508420  0.68097941    -0.81420
H404        H  0.22854170  0.21872149  0.78388732    -0.06770
C405        C  0.32232001  0.28561987  0.76759883     0.87160
O406        O  0.22369663  0.29451195  0.71862757    -0.75930
O407        O  0.30029396  0.21714408  0.72473644    -0.88700
O408        O  0.27934567  0.24875664  0.82576661    -0.81510
C409        C  0.31180572  0.17512501  0.79341733     0.92340
C410        C  0.26662491  0.16352627  0.69315284     0.92190
Mg411      Mg  0.26574241  0.29509438  0.78858598     1.57950
O412        O  0.29423727  0.32965641  0.78879762    -0.81430
O413        O  0.23872069  0.25749309  0.78890925    -0.75670
O414        O  0.30062653  0.17400896  0.77050079    -0.81510
O415        O  0.27782553  0.22983403  0.63962946    -0.83220
O416        O  0.25231876  0.34443653  0.70481366    -0.81540
C417        C  0.24406904  0.23381680  0.78184292     0.86630
O418        O  0.25598193  0.30101855  0.74792332    -0.88680
O419        O  0.30124562  0.27405494  0.77478980    -0.88790
O420        O  0.32161689  0.30466183  0.75083659    -0.75840
Mg421      Mg  0.26825308  0.19567153  0.74603198     1.57970
O422        O  0.30819939  0.19467040  0.80882217    -0.83220
H423        H  0.21445602  0.23705555  0.69373370    -0.06940
O424        O  0.28768777  0.29366242  0.69960505    -0.88490
H425        H  0.32540424  0.30274624  0.68752981    -0.06770
H426        H  0.21658336  0.30647369  0.75664258    -0.06950
C427        C  0.31002086  0.28758637  0.69006747     0.86600
C428        C  0.23348073  0.23189412  0.70339890     0.87190
C429        C  0.23153639  0.30110200  0.74184358     0.87240
H430        H  0.34173172  0.27953394  0.77587165    -0.06930
O431        O  0.33105965  0.22248935  0.75591597    -0.75950
Mg432      Mg  0.28594212  0.32459644  0.72761697     1.58000
H433        H  0.33995790  0.21050930  0.71821073    -0.06940
C434        C  0.26279443  0.25000642  0.63759895     0.92220
O435        O  0.24215501  0.32479963  0.66636229    -0.83180
C436        C  0.23877986  0.34321040  0.68321647     0.92280
O437        O  0.26832550  0.16142019  0.71824097    -0.83170
Mg438      Mg  0.30453734  0.23560826  0.79149614     1.58180
O439        O  0.27254881  0.27159618  0.64611333    -0.81500
O440        O  0.27597772  0.29081488  0.83269389    -0.83190
C441        C  0.03713231  0.35833317  0.66030325     0.00130
C442        C  0.00882207  0.35965734  0.65683188     0.00130
C443        C  0.36792373  0.34786679  0.98980737     0.00130
C444        C  0.37139684  0.34508593  0.01686919     0.00130
C445        C  0.38652113  0.99939534  0.35699555     0.00130
C446        C  0.37712782  0.02519711  0.35921530     0.00130
C447        C  0.29276938  0.39322753  0.08971866     0.02690
C448        C  0.27418054  0.41444868  0.08526153    -0.13460
C449        C  0.25579569  0.42166541  0.10574925     0.00190
C450        C  0.25468596  0.40642655  0.12894178    -0.11980
C451        C  0.27558417  0.38910715  0.13516778     0.02690
C452        C  0.29402259  0.38177446  0.11535255    -0.11400
H453        H  0.27457112  0.42554316  0.06677566     0.08280
H454        H  0.24083483  0.41230847  0.14468424     0.05810
H455        H  0.31020991  0.36799387  0.12030814     0.05660
C456        C  0.44405883  0.24475835  0.11408562     0.02690
C457        C  0.44952968  0.25968485  0.09042739    -0.13460
C458        C  0.42948455  0.27740598  0.08039107     0.00190
C459        C  0.40559479  0.28111975  0.09457171    -0.11980
C460        C  0.40007677  0.26682972  0.11726131     0.02690
C461        C  0.41840830  0.24789750  0.12638616    -0.11400
H462        H  0.46891050  0.25808746  0.08038423     0.08280
H463        H  0.39091467  0.29573638  0.08789771     0.05810
H464        H  0.41314000  0.23668427  0.14409182     0.05660
C465        C  0.44218179  0.10665410  0.23303746     0.02690
C466        C  0.43737452  0.09162034  0.25668022    -0.13460
C467        C  0.41075947  0.09112656  0.26833072     0.00190
C468        C  0.39090603  0.10825609  0.25737300    -0.11980
C469        C  0.39546214  0.12192325  0.23352346     0.02690
C470        C  0.42052431  0.12014997  0.22122307    -0.11400
H471        H  0.45394938  0.08056425  0.26561167     0.08280
H472        H  0.37179632  0.11135694  0.26760248     0.05810
H473        H  0.42390267  0.13175533  0.20328041     0.05660
C474        C  0.27533020  0.06271715  0.39993748     0.02690
C475        C  0.26215088  0.07353355  0.42287254    -0.13460
C476        C  0.23922816  0.09076759  0.41950449     0.00190
C477        C  0.23130267  0.09774805  0.39354576    -0.11980
C478        C  0.24728269  0.09082412  0.37187416     0.02690
C479        C  0.26665146  0.07100449  0.37458694    -0.11400
H480        H  0.27009884  0.06944590  0.44264003     0.08280
H481        H  0.21600714  0.11302535  0.39072927     0.05810
H482        H  0.27881501  0.06602943  0.35727076     0.05660
C483        C  0.11798455  0.23224390  0.41058449     0.02690
C484        C  0.14281398  0.23385448  0.39743520    -0.13460
C485        C  0.14775262  0.25272711  0.37777762     0.00190
C486        C  0.12631249  0.26878279  0.36898901    -0.11980
C487        C  0.10080771  0.26784301  0.38166354     0.02690
C488        C  0.09654765  0.24947368  0.40284001    -0.11400
H489        H  0.15957843  0.22184206  0.40482373     0.08280
H490        H  0.12989479  0.28318741  0.35332962     0.05810
H491        H  0.07752869  0.24943031  0.41370285     0.05660
C492        C  0.10934849  0.42091836  0.27796204     0.02690
C493        C  0.11529456  0.43492024  0.25418240    -0.13460
C494        C  0.14280055  0.44119526  0.24787402     0.00190
C495        C  0.16367321  0.43133529  0.26462590    -0.11980
C496        C  0.15743938  0.41798305  0.28831693     0.02690
C497        C  0.13044159  0.41453720  0.29550939    -0.11400
H498        H  0.09891108  0.44055439  0.24078208     0.08280
H499        H  0.18484148  0.43347315  0.25890770     0.05810
H500        H  0.12588232  0.40410181  0.31392574     0.05660
O501        O  0.31544710  0.29934662  0.24709933    -0.88780
C502        C  0.24390212  0.32753470  0.27166030     0.87250
Mg503      Mg  0.31730899  0.26321548  0.22573755     1.58150
O504        O  0.29426493  0.31441916  0.31966126    -0.88510
O505        O  0.33465540  0.32689408  0.27547996    -0.75840
C506        C  0.26662264  0.18384571  0.31058951     0.92300
O507        O  0.25512068  0.29037834  0.22104492    -0.75660
O508        O  0.26767856  0.18535423  0.28543820    -0.83160
Mg509      Mg  0.28571602  0.32465104  0.22962323     1.57960
C510        C  0.26410493  0.26526175  0.37430681     0.92220
O511        O  0.31596028  0.35638275  0.23925871    -0.81420
H512        H  0.33166952  0.31946364  0.33496398    -0.06770
C513        C  0.23756820  0.25552191  0.30536413     0.87160
O514        O  0.33916343  0.24406658  0.26145093    -0.75930
O515        O  0.26891375  0.32762226  0.26856081    -0.88700
O516        O  0.27373525  0.28790795  0.36891097    -0.81510
C517        C  0.24521115  0.36433312  0.33425549     0.92340
C518        C  0.30447522  0.37813199  0.24255891     0.92190
Mg519      Mg  0.29377962  0.24282070  0.32852401     1.57950
O520        O  0.27279243  0.20316627  0.32572848    -0.81430
O521        O  0.31926277  0.28108053  0.33353151    -0.75670
O522        O  0.26089637  0.36740624  0.31438968    -0.81510
O523        O  0.30558282  0.32242509  0.18874188    -0.83220
O524        O  0.30541552  0.20104091  0.23841281    -0.81540
C525        C  0.31554473  0.30574498  0.32974631     0.86630
O526        O  0.30461144  0.23857381  0.28795142    -0.88680
O527        O  0.25883287  0.26542420  0.31424201    -0.88790
O528        O  0.23774436  0.24010386  0.28543429    -0.75840
Mg529      Mg  0.29692454  0.34796012  0.29462559     1.57970
O530        O  0.24709039  0.34446816  0.34979348    -0.83220
H531        H  0.35598604  0.30112814  0.25233688    -0.06940
O532        O  0.27671225  0.25685662  0.23928826    -0.88490
H533        H  0.24002663  0.25275360  0.22186634    -0.06770
H534        H  0.34225417  0.22674040  0.29796653    -0.06950
C535        C  0.25656842  0.26590719  0.22731225     0.86600
C536        C  0.33618423  0.30851111  0.25803644     0.87190
C537        C  0.32912706  0.23587675  0.28321636     0.87240
H538        H  0.21829234  0.26079979  0.31424084    -0.06930
O539        O  0.23334834  0.31919029  0.29322612    -0.75950
Mg540      Mg  0.27281029  0.22222275  0.26181142     1.58000
H541        H  0.23080030  0.33440575  0.25568046    -0.06940
C542        C  0.30918071  0.29947847  0.17953614     0.92220
O543        O  0.32006220  0.22466238  0.20401239    -0.83180
C544        C  0.31973650  0.20347347  0.21753812     0.92280
O545        O  0.29650236  0.38408457  0.26571739    -0.83170
Mg546      Mg  0.25393229  0.30391574  0.33182967     1.58180
O547        O  0.29665143  0.28058100  0.19018945    -0.81500
O548        O  0.27993689  0.24571466  0.37214311    -0.83190
C549        C  0.01006231  0.35598156  0.33755687     0.00130
C550        C  0.03746295  0.35256354  0.33330243     0.00130
C551        C  0.68277504  0.37644789  0.00734406     0.00130
C552        C  0.66082409  0.35904224  0.00422641     0.00130
C553        C  0.91100665  0.45597768  0.25873037     0.02690
C554        C  0.93615674  0.45306285  0.27263898    -0.13460
C555        C  0.93890422  0.43247774  0.29183336     0.00190
C556        C  0.91659070  0.41596635  0.29680703    -0.11980
C557        C  0.89419654  0.41626252  0.27978808     0.02690
C558        C  0.89001639  0.43775560  0.26311442    -0.11400
H559        H  0.95331582  0.46569910  0.26789161     0.08280
H560        H  0.91944418  0.39870856  0.30950418     0.05810
H561        H  0.87234621  0.43761365  0.24995276     0.05660
C562        C  0.91406603  0.26000904  0.42710976     0.02690
C563        C  0.93885820  0.26775956  0.41515806    -0.13460
C564        C  0.94133146  0.29378768  0.40501478     0.00190
C565        C  0.91839814  0.31036772  0.40489756    -0.11980
C566        C  0.89256813  0.29948000  0.40923641     0.02690
C567        C  0.89218175  0.27799253  0.42697948    -0.11400
H568        H  0.95536447  0.25374196  0.41298932     0.08280
H569        H  0.92033730  0.32992494  0.39647392     0.05810
H570        H  0.87300652  0.27161993  0.43545964     0.05660
C571        C  0.60679040  0.25314648  0.11566921     0.02690
C572        C  0.60034173  0.27320958  0.09646882    -0.13460
C573        C  0.62088810  0.29147457  0.08816129     0.00190
C574        C  0.64666929  0.28986941  0.09960391    -0.11980
C575        C  0.65397282  0.26875908  0.11575181     0.02690
C576        C  0.63398146  0.25095765  0.12463440    -0.11400
H577        H  0.58024271  0.27386898  0.08746467     0.08280
H578        H  0.66255382  0.30318433  0.09257169     0.05810
H579        H  0.63967427  0.23506195  0.13808141     0.05660
C580        C  0.79811892  0.42966219  0.11177249     0.02690
C581        C  0.77465065  0.42548284  0.09532615    -0.13460
C582        C  0.76446590  0.39916165  0.09050738     0.00190
C583        C  0.77745352  0.37852486  0.10481515    -0.11980
C584        C  0.80258909  0.38228616  0.11778192     0.02690
C585        C  0.81281479  0.40779649  0.12069580    -0.11400
H586        H  0.76472796  0.44259751  0.08678365     0.08280
H587        H  0.76852370  0.35906254  0.10575529     0.05810
H588        H  0.83216772  0.41084928  0.13082644     0.05660
C589        C  0.60684736  0.09392664  0.22304633     0.02690
C590        C  0.62803782  0.09991374  0.20572635    -0.13460
C591        C  0.65432900  0.10106466  0.21542446     0.00190
C592        C  0.66034966  0.09109236  0.24064544    -0.11980
C593        C  0.64057548  0.07787560  0.25617029     0.02690
C594        C  0.61282179  0.08072354  0.24757088    -0.11400
H595        H  0.62365948  0.10973928  0.18687262     0.08280
H596        H  0.68062226  0.09479982  0.24850322     0.05810
H597        H  0.59604330  0.07369934  0.25942801     0.05660
C598        C  0.77491645  0.12064687  0.42659771     0.02690
C599        C  0.76722309  0.13989910  0.40788105    -0.13460
C600        C  0.74440508  0.13612695  0.39157150     0.00190
C601        C  0.72866204  0.11341754  0.39479897    -0.11980
C602        C  0.73761792  0.09271716  0.41128747     0.02690
C603        C  0.76084642  0.09637001  0.42756636    -0.11400
H604        H  0.77919828  0.15789997  0.40605637     0.08280
H605        H  0.71095290  0.11062336  0.38206053     0.05810
H606        H  0.76773441  0.08069718  0.44073227     0.05660
O607        O  0.86198074  0.24612342  0.23926548    -0.88780
C608        C  0.79087555  0.26720598  0.27632658     0.87250
Mg609      Mg  0.87495405  0.26674436  0.20314475     1.58150
O610        O  0.79359264  0.20293038  0.24877001    -0.88510
O611        O  0.85599584  0.20908058  0.26149096    -0.75840
C612        C  0.76604768  0.25365190  0.13106377     0.92300
O613        O  0.83138136  0.30327145  0.24007090    -0.75660
O614        O  0.78814072  0.26656984  0.12869551    -0.83160
Mg615      Mg  0.84966384  0.27313253  0.26983928     1.57960
C616        C  0.73254719  0.17919618  0.19947786     0.92220
O617        O  0.86674441  0.24624895  0.30090717    -0.81420
H618        H  0.81131837  0.16737754  0.24677636    -0.06770
C619        C  0.75916128  0.26110142  0.20255711     0.87160
O620        O  0.86367087  0.22972763  0.17851025    -0.75930
O621        O  0.81127238  0.25379378  0.27185271    -0.88700
O622        O  0.73572495  0.18859294  0.22272454    -0.81510
C623        C  0.75131864  0.20556625  0.30485772     0.92340
C624        C  0.85315585  0.24448645  0.32220410     0.92190
Mg625      Mg  0.78373902  0.21100233  0.17910546     1.57950
O626        O  0.76342378  0.23531135  0.14804395    -0.81430
O627        O  0.80231674  0.18348668  0.21067524    -0.75670
O628        O  0.77491721  0.21545804  0.30862851    -0.81510
O629        O  0.89036650  0.29182172  0.26781605    -0.83220
O630        O  0.85234782  0.27092557  0.14492191    -0.81540
C631        C  0.80235894  0.18380439  0.23603368     0.86630
O632        O  0.81924881  0.23339515  0.17674236    -0.88680
O633        O  0.76893794  0.23923194  0.20821828    -0.88790
O634        O  0.77208187  0.27767411  0.18834242    -0.75840
Mg635      Mg  0.81464076  0.21354283  0.28443714     1.57970
O636        O  0.74024749  0.20454006  0.28197891    -0.83220
H637        H  0.88841108  0.21602549  0.23712524    -0.06940
O638        O  0.83413731  0.28213361  0.20221805    -0.88490
H639        H  0.81836936  0.31859745  0.20472305    -0.06770
H640        H  0.83901302  0.20352124  0.15914203    -0.06950
C641        C  0.82758519  0.30202385  0.21500782     0.86600
C642        C  0.86962689  0.22353352  0.24535144     0.87190
C643        C  0.84038675  0.22142838  0.17087531     0.87240
H644        H  0.73945542  0.26646789  0.21043175    -0.06930
O645        O  0.76774599  0.26004213  0.26758051    -0.75950
Mg646      Mg  0.81270954  0.27407008  0.16637220     1.58000
H647        H  0.79280982  0.28540920  0.28751926    -0.06940
C648        C  0.89194587  0.30914520  0.24980554     0.92220
O649        O  0.88510973  0.29157193  0.16551137    -0.83180
C650        C  0.86642347  0.29161508  0.14788026     0.92280
O651        O  0.83450573  0.22724358  0.32324204    -0.83170
Mg652      Mg  0.75475014  0.22288213  0.24422713     1.58180
O653        O  0.88675356  0.30361478  0.22568339    -0.81500
O654        O  0.74655667  0.18643221  0.17973823    -0.83190
C655        C  0.68977752  0.01728421  0.34500274     0.00130
C656        C  0.68713227  0.99009771  0.34447423     0.00130
C657        C  0.74815719  0.92700024  0.42327244     0.02690
C658        C  0.77514697  0.92813352  0.43440486    -0.13460
C659        C  0.78639062  0.90518569  0.44704768     0.00190
C660        C  0.77198774  0.88142320  0.44496815    -0.11980
C661        C  0.74657054  0.87987079  0.43247538     0.02690
C662        C  0.73335290  0.90334253  0.42538827    -0.11400
H663        H  0.78708929  0.94612154  0.43290719     0.08280
H664        H  0.78253257  0.86338351  0.45046151     0.05810
H665        H  0.71342509  0.90206132  0.41593671     0.05660
C666        C  0.63147290  0.93619445  0.26178452     0.02690
C667        C  0.60783564  0.93133372  0.24570333    -0.13460
C668        C  0.60591377  0.90705342  0.23127703     0.00190
C669        C  0.62712583  0.88880685  0.23377200    -0.11980
C670        C  0.64763036  0.89217172  0.25264959     0.02690
C671        C  0.65146894  0.91667390  0.26410691    -0.11400
H672        H  0.59134559  0.94552172  0.24504015     0.08280
H673        H  0.62540452  0.86995678  0.22357725     0.05810
H674        H  0.66868229  0.91949736  0.27754097     0.05660
C675        C  0.97883198  0.76076766  0.40329588     0.02690
C676        C  0.96531405  0.76923380  0.42693109    -0.13460
C677        C  0.94819960  0.79204199  0.42596860     0.00190
C678        C  0.94335244  0.80433354  0.40149212    -0.11980
C679        C  0.95720872  0.79705422  0.37840117     0.02690
C680        C  0.97594967  0.77623086  0.38012295    -0.11400
H681        H  0.96809907  0.75851807  0.44546208     0.08280
H682        H  0.92771106  0.81935934  0.40068001     0.05810
H683        H  0.98722784  0.77061549  0.36255821     0.05660
C684        C  0.94467573  0.59657752  0.22791214     0.02690
C685        C  0.94556272  0.62019977  0.21312220    -0.13460
C686        C  0.95678967  0.64292279  0.22417549     0.00190
C687        C  0.97545056  0.64036315  0.24486281    -0.11980
C688        C  0.97269119  0.61918422  0.26285263     0.02690
C689        C  0.95738442  0.59641449  0.25396026    -0.11400
H690        H  0.93259701  0.62239251  0.19564057     0.08280
H691        H  0.98591856  0.65823567  0.25127231     0.05810
H692        H  0.95361439  0.58014709  0.26753970     0.05660
C693        C  0.62665082  0.73273751  0.08733234     0.02690
C694        C  0.60627006  0.75275762  0.08800066    -0.13460
C695        C  0.59284170  0.75850850  0.11238047     0.00190
C696        C  0.60022201  0.74419129  0.13522285    -0.11980
C697        C  0.62335784  0.72828593  0.13561388     0.02690
C698        C  0.63558069  0.72155285  0.11148048    -0.11400
H699        H  0.60109437  0.76366038  0.07006579     0.08280
H700        H  0.58997010  0.74806016  0.15390281     0.05810
H701        H  0.65305378  0.70844517  0.11150581     0.05660
C702        C  0.80828562  0.59804943  0.08791691     0.02690
C703        C  0.78972707  0.59718426  0.06590197    -0.13460
C704        C  0.78096743  0.62136835  0.05413462     0.00190
C705        C  0.79220945  0.64506681  0.06346229    -0.11980
C706        C  0.80685111  0.64607816  0.08693290     0.02690
C707        C  0.81515015  0.62262169  0.09900034    -0.11400
H708        H  0.78247288  0.57847211  0.05809753     0.08280
H709        H  0.78609913  0.66380393  0.05471300     0.05810
H710        H  0.82617233  0.62328925  0.11780657     0.05660
O711        O  0.79297968  0.79577827  0.29627867    -0.88780
C712        C  0.83455338  0.72839605  0.29302858     0.87250
Mg713      Mg  0.75105133  0.79480281  0.30475636     1.58150
O714        O  0.81441925  0.75790217  0.23214369    -0.88510
O715        O  0.81803698  0.81128683  0.26418051    -0.75840
C716        C  0.69096701  0.71174323  0.22677412     0.92300
O717        O  0.78331619  0.74308326  0.32982394    -0.75660
O718        O  0.68713457  0.72344516  0.24874028    -0.83160
Mg719      Mg  0.81756913  0.77425177  0.32330116     1.57960
C720        C  0.78789781  0.71199158  0.17163909     0.92220
O721        O  0.85540595  0.80219242  0.31994542    -0.81420
H722        H  0.81877344  0.78620748  0.20447218    -0.06770
C723        C  0.76511830  0.69664267  0.25567955     0.87160
O724        O  0.74340144  0.80015870  0.25993791    -0.75930
O725        O  0.83119256  0.75245634  0.28974107    -0.88700
O726        O  0.80720787  0.71750068  0.18743106    -0.81510
C727        C  0.87896941  0.72503914  0.23090746     0.92340
C728        C  0.87627441  0.80252829  0.30468081     0.92190
Mg729      Mg  0.74965161  0.73540877  0.21311542     1.57950
O730        O  0.71483155  0.70538081  0.21951647    -0.81430
O731        O  0.78288450  0.76606360  0.20250589    -0.75670
O732        O  0.87663754  0.74426552  0.24690039    -0.81510
O733        O  0.80039025  0.79948608  0.35740049    -0.83220
O734        O  0.69305513  0.77451264  0.27815469    -0.81540
C735        C  0.80610809  0.77072942  0.21276989     0.86630
O736        O  0.73888326  0.75929695  0.24509006    -0.88680
O737        O  0.77412865  0.71478959  0.24155929    -0.88790
O738        O  0.74475377  0.70028048  0.27087887    -0.75840
Mg739      Mg  0.84500489  0.77576537  0.25584375     1.57970
O740        O  0.85893237  0.71563137  0.21820625    -0.83220
H741        H  0.79061041  0.83351040  0.28424520    -0.06940
O742        O  0.75064278  0.75306804  0.30163244    -0.88490
H743        H  0.74791028  0.72222660  0.32662683    -0.06770
H744        H  0.73706493  0.79091200  0.22103839    -0.06950
C745        C  0.75993450  0.73874369  0.31952362     0.86600
C746        C  0.80036425  0.81446378  0.28215080     0.87190
C747        C  0.73958716  0.78357195  0.24117546     0.87240
H748        H  0.77481181  0.67744710  0.25520943    -0.06930
O749        O  0.82888378  0.71175192  0.27482635    -0.75950
Mg750      Mg  0.71922715  0.73812078  0.27647072     1.58000
H751        H  0.84166343  0.72128628  0.31219637    -0.06940
C752        C  0.77495366  0.80048479  0.36241761     0.92220
O753        O  0.70641617  0.79665280  0.31326682    -0.83180
C754        C  0.69171501  0.79485232  0.29258744     0.92280
O755        O  0.87580716  0.79424497  0.28090128    -0.83170
Mg756      Mg  0.81579142  0.71582563  0.23093995     1.58180
O757        O  0.75769391  0.78809699  0.34850870    -0.81500
O758        O  0.76340582  0.71092606  0.17941239    -0.83190
C759        C  0.02664014  0.66848074  0.35276334     0.00130
C760        C  0.05437871  0.66510636  0.34803453     0.00130
C761        C  0.31806101  0.87583280  0.43812262     0.02690
C762        C  0.32698167  0.90176137  0.43163100    -0.13460
C763        C  0.34601141  0.90546781  0.41075853     0.00190
C764        C  0.35634384  0.88314432  0.39748959    -0.11980
C765        C  0.34572013  0.85797377  0.40247194     0.02690
C766        C  0.32861971  0.85420436  0.42423326    -0.11400
H767        H  0.31766471  0.91871885  0.44109373     0.08280
H768        H  0.36919493  0.88590879  0.38014939     0.05810
H769        H  0.31971761  0.83473102  0.42734258     0.05660
C770        C  0.42946266  0.94443218  0.26819285     0.02690
C771        C  0.40455913  0.93169997  0.26335803    -0.13460
C772        C  0.40190628  0.91315450  0.24320921     0.00190
C773        C  0.42429121  0.90590245  0.22821179    -0.11980
C774        C  0.44982818  0.91740086  0.23281570     0.02690
C775        C  0.45261455  0.93717871  0.25290953    -0.11400
H776        H  0.38677158  0.93667234  0.27512302     0.08280
H777        H  0.42180490  0.89090562  0.21288222     0.05810
H778        H  0.47203896  0.94686865  0.25628433     0.05660
C779        C  0.29900669  0.59950308  0.06255102     0.02690
C780        C  0.28451336  0.57770547  0.07360149    -0.13460
C781        C  0.26183325  0.58255896  0.09063212     0.00190
C782        C  0.25411673  0.60880307  0.09581542    -0.11980
C783        C  0.26768353  0.62995121  0.08375568     0.02690
C784        C  0.29004664  0.62505268  0.06776457    -0.11400
H785        H  0.29034078  0.55763318  0.06873875     0.08280
H786        H  0.23727345  0.61271712  0.10915450     0.05810
H787        H  0.30031571  0.64162342  0.05827213     0.05660
C788        C  0.10692887  0.61967486  0.25611486     0.02690
C789        C  0.11049259  0.59444693  0.24389539    -0.13460
C790        C  0.12909905  0.59185465  0.22244957     0.00190
C791        C  0.14304204  0.61422259  0.21362937    -0.11980
C792        C  0.14229368  0.63787965  0.22771538     0.02690
C793        C  0.12342748  0.64104586  0.24812497    -0.11400
H794        H  0.09958974  0.57729537  0.25127980     0.08280
H795        H  0.15781036  0.61203009  0.19771059     0.05810
H796        H  0.12273782  0.65964364  0.25889130     0.05660
C797        C  0.18141199  0.73370363  0.43046736     0.02690
C798        C  0.20166166  0.71964602  0.41662963    -0.13460
C799        C  0.19571030  0.70333738  0.39491114     0.00190
C800        C  0.16863993  0.69689017  0.38965751    -0.11980
C801        C  0.14739869  0.70797353  0.40457519     0.02690
C802        C  0.15373707  0.72689186  0.42476937    -0.11400
H803        H  0.22296211  0.72405790  0.41989235     0.08280
H804        H  0.16373440  0.68506908  0.37225186     0.05810
H805        H  0.13727193  0.73631466  0.43531418     0.05660
C806        C  0.41284953  0.74737933  0.07385265     0.02690
C807        C  0.43426385  0.75610258  0.09099806    -0.13460
C808        C  0.43484246  0.78259476  0.10014251     0.00190
C809        C  0.41253946  0.79891638  0.09517442    -0.11980
C810        C  0.39136407  0.79154508  0.07778997     0.02690
C811        C  0.39298976  0.76622208  0.06595644    -0.11400
H812        H  0.45013748  0.74269562  0.09742192     0.08280
H813        H  0.41180431  0.81725217  0.10608821     0.05810
H814        H  0.37811499  0.76044314  0.05112096     0.05660
O815        O  0.29411870  0.72467602  0.23968988    -0.88780
C816        C  0.22526379  0.74139149  0.19847063     0.87250
Mg817      Mg  0.30604919  0.74911857  0.27159133     1.58150
O818        O  0.28795800  0.75538843  0.16821673    -0.88510
O819        O  0.30911497  0.70683753  0.20271321    -0.75840
C820        C  0.29745292  0.86636044  0.22788800     0.92300
O821        O  0.23610707  0.74743031  0.26453159    -0.75660
O822        O  0.28845592  0.85771276  0.24987492    -0.83160
Mg823      Mg  0.25221455  0.71144430  0.24201278     1.57960
C824        C  0.30070670  0.82238704  0.12544633     0.92220
O825        O  0.26600555  0.67596173  0.21997041    -0.81420
H826        H  0.32530977  0.74411009  0.15690303    -0.06770
C827        C  0.24457457  0.81441600  0.19863509     0.87160
O828        O  0.33494189  0.77289523  0.24548818    -0.75930
O829        O  0.24748781  0.73118437  0.20429946    -0.88700
O830        O  0.28552222  0.80209986  0.12732893    -0.81510
C831        C  0.24331557  0.73061161  0.12228820     0.92340
C832        C  0.24913341  0.66995491  0.20181955     0.92190
Mg833      Mg  0.30543535  0.82020128  0.18775089     1.57950
O834        O  0.28814130  0.85749263  0.20598047    -0.81430
O835        O  0.32332047  0.78202075  0.16997649    -0.75670
O836        O  0.23834120  0.72343318  0.14577477    -0.81510
O837        O  0.25669282  0.69160179  0.28282657    -0.83220
O838        O  0.30999571  0.81494978  0.28928919    -0.81540
C839        C  0.31254715  0.75971374  0.16453827     0.86630
O840        O  0.30907906  0.80287455  0.22636200    -0.88680
O841        O  0.26430254  0.80569290  0.18616501    -0.88790
O842        O  0.24536293  0.81761893  0.22376586    -0.75840
Mg843      Mg  0.27357054  0.71544679  0.17339661     1.57970
O844        O  0.24788707  0.75472002  0.11758645    -0.83220
H845        H  0.33025785  0.70635750  0.23777599    -0.06940
O846        O  0.27113488  0.77382075  0.26195188    -0.88490
H847        H  0.23748173  0.78365177  0.28201615    -0.06770
H848        H  0.34944910  0.80153406  0.22103545    -0.06950
C849        C  0.24798991  0.76899903  0.27022549     0.86600
C850        C  0.31190960  0.71237952  0.22738635     0.87190
C851        C  0.33181330  0.79314395  0.23080724     0.87240
H852        H  0.22583524  0.81856735  0.18797876    -0.06930
O853        O  0.22334021  0.75939320  0.18061573    -0.75950
Mg854      Mg  0.27904432  0.81447761  0.25552196     1.58000
H855        H  0.20705448  0.73468141  0.20853170    -0.06940
C856        C  0.26423481  0.70575124  0.30253384     0.92220
O857        O  0.31834826  0.77494827  0.30630952    -0.83180
C858        C  0.31883716  0.80002197  0.30784130     0.92280
O859        O  0.25644569  0.67353124  0.17800566    -0.83170
Mg860      Mg  0.25546813  0.78094001  0.15381306     1.58180
O861        O  0.28015413  0.72520841  0.29919613    -0.81500
O862        O  0.30437556  0.83763983  0.14539218    -0.83190
C863        C  0.39530502  0.66538887  0.00183882     0.00130
C864        C  0.37895088  0.64416047  0.99350509     0.00130
C865        C  0.40939771  0.71906281  0.06403241    -0.06560
C866        C  0.38257515  0.70902134  0.06119519    -0.17690
C867        C  0.37637087  0.68814999  0.04358592     0.10640
C868        C  0.39776188  0.67429020  0.03076870    -0.06480
C869        C  0.42462566  0.67975783  0.03971194    -0.17720
C870        C  0.43081868  0.70301920  0.05416134     0.10670
S871        S  0.34098833  0.68447285  0.03454014    -0.32690
S872        S  0.46604349  0.71311570  0.05455634    -0.32690
H873        H  0.46049575  0.73890922  0.04543744     0.28680
H874        H  0.34538086  0.68666297  0.00692532     0.28670
H875        H  0.36575266  0.71977521  0.06993522     0.19270
H876        H  0.44132680  0.66925526  0.03043159     0.19270
C877        C  0.36572213  0.80808862  0.07630683    -0.06560
C878        C  0.34058470  0.79586470  0.07012560    -0.17690
C879        C  0.31630175  0.80533089  0.08111516     0.10640
C880        C  0.31777119  0.82495422  0.10114646    -0.06480
C881        C  0.34100300  0.84118751  0.10175441    -0.17720
C882        C  0.36433627  0.83392734  0.08750697     0.10670
S883        S  0.28398516  0.79133496  0.07072473    -0.32690
S884        S  0.39070461  0.85857349  0.08332252    -0.32690
H885        H  0.40412881  0.84492443  0.06276068     0.28680
H886        H  0.29435930  0.77458618  0.05082088     0.28670
H887        H  0.33962047  0.77790535  0.05858203     0.19270
H888        H  0.34161864  0.85855708  0.11440494     0.19270
C889        C  0.21689720  0.70023618  0.37396734    -0.06560
C890        C  0.23250268  0.72283947  0.36831388    -0.17690
C891        C  0.25060270  0.72386844  0.34730417     0.10640
C892        C  0.25167654  0.70232359  0.32914936    -0.06480
C893        C  0.23686963  0.67911022  0.33507766    -0.17720
C894        C  0.22017606  0.67754868  0.35775894     0.10670
S895        S  0.26948027  0.75458915  0.34355269    -0.32690
S896        S  0.20380703  0.64630516  0.36473638    -0.32690
H897        H  0.20140851  0.65050729  0.39236443     0.28680
H898        H  0.26711297  0.76353784  0.37002837     0.28670
H899        H  0.22943329  0.74087411  0.37950987     0.19270
H900        H  0.23791795  0.66226591  0.32175664     0.19270
C901        C  0.21992053  0.66625958  0.20856164    -0.06560
C902        C  0.21327180  0.66229394  0.23553312    -0.17690
C903        C  0.18666035  0.65672239  0.24338840     0.10640
C904        C  0.16575193  0.65568182  0.22395311    -0.06480
C905        C  0.17165254  0.66299137  0.19763511    -0.17720
C906        C  0.19850053  0.66728081  0.18941861     0.10670
S907        S  0.18140428  0.64846621  0.27802100    -0.32690
S908        S  0.20448830  0.67115665  0.15411713    -0.32690
H909        H  0.17727731  0.67542215  0.14623677     0.28680
H910        H  0.16983484  0.62351456  0.27275473     0.28670
H911        H  0.22918998  0.66171610  0.25054724     0.19270
H912        H  0.15551842  0.66177635  0.18282611     0.19270
C913        C  0.32120570  0.59857593  0.04242674    -0.06560
C914        C  0.34849802  0.60114660  0.05120562    -0.17690
C915        C  0.36842570  0.61454745  0.03576896     0.10640
C916        C  0.36037131  0.62833166  0.01221212    -0.06480
C917        C  0.33293567  0.62505502  0.00383537    -0.17720
C918        C  0.31457897  0.60861042  0.01701443     0.10670
S919        S  0.40315585  0.61298089  0.04757406    -0.32690
S920        S  0.28090520  0.60506655  0.00269967    -0.32690
H921        H  0.27409886  0.58213901  0.01720956     0.28680
H922        H  0.41558468  0.61859857  0.02307612     0.28670
H923        H  0.35401445  0.59380576  0.07082570     0.19270
H924        H  0.32536049  0.63540811  0.98642911     0.19270
C925        C  0.24939116  0.71015059  0.10293830    -0.06560
C926        C  0.22805421  0.69340527  0.09490077    -0.17690
C927        C  0.23329836  0.66739141  0.08695715     0.10640
C928        C  0.26027102  0.65773151  0.08864026    -0.06480
C929        C  0.28157622  0.67526072  0.09486398    -0.17720
C930        C  0.27653852  0.70147616  0.10090232     0.10670
S931        S  0.20486862  0.64764483  0.07554653    -0.32690
S932        S  0.30574649  0.72165943  0.10890722    -0.32690
H933        H  0.29393096  0.74569233  0.10139458     0.28680
H934        H  0.22007915  0.63240319  0.05750201     0.28670
H935        H  0.20713516  0.70008562  0.09644495     0.19270
H936        H  0.30245843  0.66831548  0.09587408     0.19270
C937        C  0.37549596  0.90091414  0.23817974    -0.06560
C938        C  0.35433024  0.91662407  0.22787563    -0.17690
C939        C  0.32857957  0.90577335  0.22292536     0.10640
C940        C  0.32414920  0.87886552  0.22881879    -0.06480
C941        C  0.34540031  0.86336761  0.23914628    -0.17720
C942        C  0.37103510  0.87400116  0.24383198     0.10670
S943        S  0.30209621  0.92757806  0.21104481    -0.32690
S944        S  0.39670637  0.85247612  0.25799243    -0.32690
H945        H  0.40990276  0.87195874  0.27340382     0.28680
H946        H  0.28561279  0.90809080  0.19915248     0.28670
H947        H  0.35792376  0.93743057  0.22379481     0.19270
H948        H  0.34166424  0.84304341  0.24476363     0.19270
C949        C  0.34023534  0.84110311  0.37920145    -0.06560
C950        C  0.31501326  0.84511508  0.36672385    -0.17690
C951        C  0.30753032  0.83104942  0.34423322     0.10640
C952        C  0.32603083  0.81285814  0.33307791    -0.06480
C953        C  0.35113599  0.80800985  0.34588898    -0.17720
C954        C  0.35845552  0.82219223  0.36908569     0.10670
S955        S  0.27370904  0.83717528  0.33109118    -0.32690
S956        S  0.39062726  0.81639355  0.38560777    -0.32690
H957        H  0.39934956  0.79603932  0.36855166     0.28680
H958        H  0.26871424  0.81107488  0.32262906     0.28670
H959        H  0.30084893  0.85945278  0.37475436     0.19270
H960        H  0.36506630  0.79376530  0.33739819     0.19270
C961        C  0.07592281  0.67939132  0.36414669    -0.06560
C962        C  0.07933658  0.67365813  0.39148285    -0.17690
C963        C  0.10109953  0.68454449  0.40640428     0.10640
C964        C  0.11930805  0.70261581  0.39419012    -0.06480
C965        C  0.11429856  0.71001597  0.36756908    -0.17720
C966        C  0.09355623  0.69832548  0.35236621     0.10670
S967        S  0.10611187  0.67240075  0.43987550    -0.32690
S968        S  0.09081137  0.70883214  0.31802991    -0.32690
H969        H  0.06223121  0.70774623  0.31668425     0.28680
H970        H  0.11782017  0.69566750  0.45002257     0.28670
H971        H  0.06581721  0.65949169  0.40089617     0.19270
H972        H  0.12816100  0.72369083  0.35784981     0.19270
C973        C  0.08825113  0.62475397  0.27884392    -0.06560
C974        C  0.09653723  0.61743861  0.30467024    -0.17690
C975        C  0.08471378  0.62890197  0.32742540     0.10640
C976        C  0.06475982  0.64903959  0.32459650    -0.06480
C977        C  0.05563148  0.65522940  0.29861072    -0.17720
C978        C  0.06665059  0.64301978  0.27603195     0.10670
S979        S  0.09611647  0.61703549  0.35946551    -0.32690
S980        S  0.05353916  0.65288419  0.24384672    -0.32690
H981        H  0.06082265  0.62945044  0.23056089     0.28680
H982        H  0.07048988  0.61957031  0.37164489     0.28670
H983        H  0.11324625  0.60363006  0.30712836     0.19270
H984        H  0.04023647  0.67031450  0.29575152     0.19270
C985        C  0.79507102  0.70418939  0.14461281    -0.06560
C986        C  0.82191933  0.69545595  0.14007230    -0.17690
C987        C  0.82765171  0.67896074  0.11870273     0.10640
C988        C  0.80596888  0.67073908  0.10223519    -0.06480
C989        C  0.78042163  0.68328893  0.10425026    -0.17720
C990        C  0.77504719  0.70063051  0.12480266     0.10670
S991        S  0.86223732  0.66757929  0.11470208    -0.32690
S992        S  0.74175029  0.71577722  0.12555859    -0.32690
H993        H  0.75079333  0.73896943  0.13845020     0.28680
H994        H  0.85930466  0.66045946  0.08770586     0.28670
H995        H  0.83807328  0.69951523  0.15434656     0.19270
H996        H  0.76356056  0.67789366  0.09130160     0.19270
C997        C  0.63689742  0.72195613  0.16137231    -0.06560
C998        C  0.64870417  0.69682905  0.16531316    -0.17690
C999        C  0.66530432  0.69172928  0.18767704     0.10640
C1000       C  0.66857637  0.71151180  0.20716618    -0.06480
C1001       C  0.65420150  0.73525869  0.20466349    -0.17720
C1002       C  0.64010673  0.74152629  0.18140672     0.10670
S1003       S  0.68227584  0.66026066  0.19125439    -0.32690
S1004       S  0.63128809  0.77604090  0.17635789    -0.32690
H1005       H  0.62734661  0.78191231  0.20349557     0.28680
H1006       H  0.67224526  0.64894040  0.16750811     0.28670
H1007       H  0.64593898  0.68167161  0.15028872     0.19270
H1008       H  0.65679566  0.75038691  0.21963484     0.19270
C1009       C  0.97992547  0.62625888  0.29157566    -0.06560
C1010       C  0.97144027  0.65147073  0.30068637    -0.17690
C1011       C  0.98528108  0.66532986  0.32083837     0.10640
C1012       C  0.00627690  0.65279946  0.33556591    -0.06480
C1013       C  0.01052840  0.62541173  0.33040283    -0.17720
C1014       C  0.99907940  0.61267649  0.30769817     0.10670
S1015       S  0.97765948  0.70011408  0.32338484    -0.32690
S1016       S  0.01168527  0.58032715  0.29922239    -0.32690
H1017       H  0.01091860  0.58398623  0.27143195     0.28680
H1018       H  0.00493834  0.70794174  0.31970045     0.28670
H1019       H  0.95635459  0.66236164  0.28937872     0.19270
H1020       H  0.02554054  0.61478542  0.34214925     0.19270
C1021       C  0.93840202  0.66578173  0.22637517    -0.06560
C1022       C  0.94085476  0.68738936  0.20893043    -0.17690
C1023       C  0.92289883  0.70888072  0.21085750     0.10640
C1024       C  0.90341253  0.70905567  0.23141718    -0.06480
C1025       C  0.90215204  0.68834063  0.24963290    -0.17720
C1026       C  0.91827715  0.66616418  0.24666336     0.10670
S1027       S  0.92489226  0.73475256  0.18616734    -0.32690
S1028       S  0.91002884  0.63779326  0.26723300    -0.32690
H1029       H  0.89583439  0.65146257  0.28724640     0.28680
H1030       H  0.91128826  0.75409463  0.20118855     0.28670
H1031       H  0.95608561  0.68708959  0.19335740     0.19270
H1032       H  0.88620899  0.68829195  0.26456053     0.19270
C1033       C  0.99506822  0.73558128  0.40004939    -0.06560
C1034       C  0.98204296  0.71063279  0.40119856    -0.17690
C1035       C  0.99309372  0.68795751  0.38836834     0.10640
C1036       C  0.01659641  0.69031736  0.37189935    -0.06480
C1037       C  0.02943697  0.71540067  0.37166218    -0.17720
C1038       C  0.02050461  0.73675860  0.38703055     0.10670
S1039       S  0.97547586  0.65695633  0.39279107    -0.32690
S1040       S  0.04133330  0.76630990  0.38698062    -0.32690
H1041       H  0.03020158  0.77703362  0.41040782     0.28680
H1042       H  0.99893493  0.64119549  0.39030515     0.28670
H1043       H  0.96247615  0.70902595  0.41100132     0.19270
H1044       H  0.04598704  0.71939237  0.35833338     0.19270
C1045       C  0.94705222  0.80646399  0.35190859    -0.06560
C1046       C  0.94520905  0.78749492  0.33152574    -0.17690
C1047       C  0.92322412  0.78731371  0.31415808     0.10640
C1048       C  0.90318196  0.80729164  0.31626495    -0.06480
C1049       C  0.90816397  0.82930282  0.33250923    -0.17720
C1050       C  0.93102221  0.82969054  0.34936191     0.10670
S1051       S  0.91964685  0.75806509  0.29366875    -0.32690
S1052       S  0.93831855  0.85968195  0.36761132    -0.32690
H1053       H  0.96464024  0.85190510  0.37570725     0.28680
H1054       H  0.89398758  0.75113589  0.30406111     0.28670
H1055       H  0.95794174  0.77009461  0.33139693     0.19270
H1056       H  0.89383767  0.84559515  0.33279689     0.19270
C1057       C  0.66084042  0.86853924  0.26384532    -0.06560
C1058       C  0.66919692  0.84920547  0.24588917    -0.17690
C1059       C  0.67565130  0.82384652  0.25448899     0.10640
C1060       C  0.67775777  0.81858938  0.28229724    -0.06480
C1061       C  0.67065340  0.83843652  0.30043738    -0.17720
C1062       C  0.66081734  0.86277702  0.29157054     0.10670
S1063       S  0.67967639  0.79890294  0.22912366    -0.32690
S1064       S  0.64680313  0.88436423  0.31663287    -0.32690
H1065       H  0.62286054  0.88979356  0.30203128     0.28680
H1066       H  0.67662442  0.81506317  0.20642397     0.28670
H1067       H  0.66898415  0.85364968  0.22474502     0.19270
H1068       H  0.67189390  0.83461411  0.32170212     0.19270
C1069       C  0.74132421  0.85568364  0.41660306    -0.06560
C1070       C  0.73916840  0.85968644  0.38892229    -0.17690
C1071       C  0.75112767  0.84221968  0.37131889     0.10640
C1072       C  0.76393000  0.81929359  0.38128099    -0.06480
C1073       C  0.76148155  0.81262991  0.40829330    -0.17720
C1074       C  0.74960040  0.83056903  0.42611757     0.10670
S1075       S  0.75081926  0.85121839  0.33641410    -0.32690
S1076       S  0.74637689  0.82233136  0.46105511    -0.32690
H1077       H  0.75744907  0.79673095  0.45926057     0.28680
H1078       H  0.77754100  0.84261654  0.33148684     0.28670
H1079       H  0.73179936  0.87823222  0.38082189     0.19270
H1080       H  0.76908624  0.79373803  0.41531161     0.19270
C1081       C  0.70209047  0.97274427  0.36490135    -0.06560
C1082       C  0.69991617  0.97815106  0.39251610    -0.17690
C1083       C  0.71673538  0.96576500  0.41180681     0.10640
C1084       C  0.73620533  0.94673284  0.40398870    -0.06480
C1085       C  0.73743766  0.94030737  0.37667207    -0.17720
C1086       C  0.72065221  0.95255676  0.35737497     0.10670
S1087       S  0.71159512  0.97433134  0.44629610    -0.32690
S1088       S  0.72341701  0.94042051  0.32372677    -0.32690
H1089       H  0.72795513  0.96532026  0.31224525     0.28680
H1090       H  0.73787290  0.96735458  0.45510636     0.28670
H1091       H  0.68500120  0.99238408  0.39922661     0.19270
H1092       H  0.75085369  0.92448572  0.37041944     0.19270
C1093       C  0.63629555  0.95894034  0.27991454    -0.06560
C1094       C  0.62843251  0.95549854  0.30672525    -0.17690
C1095       C  0.64466456  0.96514364  0.32803909     0.10640
C1096       C  0.66966717  0.97797830  0.32264041    -0.06480
C1097       C  0.67652617  0.98243881  0.29576189    -0.17720
C1098       C  0.65947813  0.97463994  0.27474882     0.10670
S1099       S  0.63390814  0.96007440  0.36202660    -0.32690
S1100       S  0.67031632  0.98192726  0.24121073    -0.32690
H1101       H  0.64469261  0.97721544  0.22932894     0.28680
H1102       H  0.60854581  0.94843916  0.35589504     0.28670
H1103       H  0.61106996  0.94292307  0.31098286     0.19270
H1104       H  0.69556145  0.99197872  0.29092567     0.19270
C1105       C  0.70344339  0.03150255  0.36753633    -0.06560
C1106       C  0.68651631  0.04639446  0.38429859    -0.17690
C1107       C  0.69741536  0.06329284  0.40362675     0.10640
C1108       C  0.72590901  0.06640305  0.40558781    -0.06480
C1109       C  0.74273388  0.04880460  0.39184695    -0.17720
C1110       C  0.73202957  0.03140824  0.37277136     0.10670
S1111       S  0.67421344  0.08287943  0.42313455    -0.32690
S1112       S  0.75693571  0.01157902  0.35559330    -0.32690
H1113       H  0.73974004  0.00074919  0.33641232     0.28680
H1114       H  0.69355477  0.09029726  0.44260633     0.28670
H1115       H  0.66458985  0.04551060  0.38176937     0.19270
H1116       H  0.76469013  0.05083881  0.39359467     0.19270
C1117       C  0.73909574  0.19066021  0.32678081    -0.06560
C1118       C  0.73518243  0.16363890  0.32190903    -0.17690
C1119       C  0.73628893  0.14534740  0.34264880     0.10640
C1120       C  0.73901662  0.15449885  0.36926134    -0.06480
C1121       C  0.73919545  0.18188318  0.37425198    -0.17720
C1122       C  0.73945349  0.20006448  0.35321093     0.10670
S1123       S  0.73844049  0.11093423  0.33302511    -0.32690
S1124       S  0.74114816  0.23482917  0.36109978    -0.32690
H1125       H  0.73237180  0.24383764  0.33591143     0.28680
H1126       H  0.76008148  0.10488730  0.35053279     0.28670
H1127       H  0.73520424  0.15634533  0.30155524     0.19270
H1128       H  0.74052437  0.18908261  0.39458611     0.19270
C1129       C  0.65103486  0.06243754  0.28040747    -0.06560
C1130       C  0.67833673  0.05350878  0.27933823    -0.17690
C1131       C  0.69184763  0.04254816  0.30125062     0.10640
C1132       C  0.67687509  0.03451139  0.32370832    -0.06480
C1133       C  0.64912930  0.04160353  0.32485748    -0.17720
C1134       C  0.63660969  0.05681036  0.30441357     0.10670
S1135       S  0.72818013  0.03780970  0.29909473    -0.32690
S1136       S  0.60338887  0.06971125  0.31163375    -0.32690
H1137       H  0.61001596  0.09517009  0.30228919     0.28680
H1138       H  0.73265125  0.05503264  0.27743783     0.28670
H1139       H  0.68985539  0.05514122  0.26109890     0.19270
H1140       H  0.63738823  0.03608434  0.34225022     0.19270
C1141       C  0.71111166  0.15997763  0.19565005    -0.06560
C1142       C  0.71835214  0.13355403  0.19129515    -0.17690
C1143       C  0.69929524  0.11342463  0.19521095     0.10640
C1144       C  0.67288278  0.12023925  0.20351951    -0.06480
C1145       C  0.66510868  0.14688373  0.20516773    -0.17720
C1146       C  0.68400306  0.16688400  0.20127532     0.10670
S1147       S  0.71014513  0.07960605  0.19118970    -0.32690
S1148       S  0.67294904  0.20063812  0.20607561    -0.32690
H1149       H  0.69263063  0.21225895  0.18939367     0.28680
H1150       H  0.68396359  0.06903945  0.18666723     0.28670
H1151       H  0.73929658  0.12850616  0.18678887     0.19270
H1152       H  0.64469928  0.15211195  0.21146021     0.19270
C1153       C  0.81963759  0.35941379  0.12604454    -0.06560
C1154       C  0.82521454  0.33986064  0.10698134    -0.17690
C1155       C  0.84242395  0.31861988  0.11281477     0.10640
C1156       C  0.85474121  0.31676349  0.13826646    -0.06480
C1157       C  0.85010099  0.33684097  0.15704138    -0.17720
C1158       C  0.83222462  0.35781110  0.15146871     0.10670
S1159       S  0.84771314  0.29437987  0.08696971    -0.32690
S1160       S  0.82376568  0.38085660  0.17774145    -0.32690
H1161       H  0.84226509  0.37117340  0.19695564     0.28680
H1162       H  0.87367126  0.28641942  0.09590675     0.28670
H1163       H  0.81633409  0.34128237  0.08721262     0.19270
H1164       H  0.85894274  0.33503003  0.17680045     0.19270
C1165       C  0.68346052  0.26436088  0.11918379    -0.06560
C1166       C  0.69934913  0.28540705  0.12899841    -0.17690
C1167       C  0.72773377  0.28476308  0.12771874     0.10640
C1168       C  0.74079586  0.26187812  0.11802025    -0.06480
C1169       C  0.72498337  0.24165888  0.10658432    -0.17720
C1170       C  0.69656424  0.24280906  0.10681988     0.10670
S1171       S  0.74623425  0.31281432  0.14079088    -0.32690
S1172       S  0.67808626  0.21665843  0.09042964    -0.32690
H1173       H  0.66911440  0.20577967  0.11470835     0.28680
H1174       H  0.76739415  0.31119227  0.12205105     0.28670
H1175       H  0.68947168  0.30281312  0.13705473     0.19270
H1176       H  0.73482674  0.22389194  0.09932888     0.19270
C1177       C  0.85707885  0.26428376  0.34396341    -0.06560
C1178       C  0.87504801  0.28555119  0.33959629    -0.17690
C1179       C  0.88099413  0.30372833  0.35980768     0.10640
C1180       C  0.87236642  0.29839826  0.38625205    -0.06480
C1181       C  0.84958573  0.28148084  0.38873632    -0.17720
C1182       C  0.84198476  0.26429935  0.36804101     0.10670
S1183       S  0.89683489  0.33438860  0.34992013    -0.32690
S1184       S  0.81345169  0.24276737  0.37419641    -0.32690
H1185       H  0.79978200  0.25068288  0.35074863     0.28680
H1186       H  0.88555720  0.34899551  0.37105371     0.28670
H1187       H  0.88403956  0.28856966  0.32016017     0.19270
H1188       H  0.83933652  0.27958668  0.40771416     0.19270
C1189       C  0.88678582  0.39028225  0.26947321    -0.06560
C1190       C  0.90081285  0.38250351  0.24638571    -0.17690
C1191       C  0.90465456  0.35600289  0.24050548     0.10640
C1192       C  0.89328605  0.33680122  0.25746646    -0.06480
C1193       C  0.87794864  0.34458363  0.27977006    -0.17720
C1194       C  0.87448645  0.37121949  0.28583526     0.10670
S1195       S  0.92566257  0.34806255  0.21217767    -0.32690
S1196       S  0.85476119  0.37995095  0.31474558    -0.32690
H1197       H  0.84943027  0.40616488  0.30679093     0.28680
H1198       H  0.93652597  0.32472482  0.22327760     0.28670
H1199       H  0.91115645  0.39714922  0.23425060     0.19270
H1200       H  0.86794143  0.32989081  0.29212948     0.19270
C1201       C  0.69662026  0.38174567  0.03405891    -0.06560
C1202       C  0.71227869  0.36136656  0.04517145    -0.17690
C1203       C  0.73584877  0.36676236  0.06041095     0.10640
C1204       C  0.74066175  0.39264613  0.07135831    -0.06480
C1205       C  0.72213135  0.41252822  0.06317084    -0.17720
C1206       C  0.70149249  0.40775674  0.04385327     0.10670
S1207       S  0.76122045  0.34098796  0.05865999    -0.32690
S1208       S  0.68256345  0.43615294  0.03228377    -0.32690
H1209       H  0.66118865  0.42216806  0.02006251     0.28680
H1210       H  0.78278332  0.35883586  0.05402709     0.28670
H1211       H  0.70902801  0.34137101  0.03800446     0.19270
H1212       H  0.72417840  0.43241497  0.07083700     0.19270
C1213       C  0.64839436  0.34272739  0.02675610    -0.06560
C1214       C  0.64967008  0.31489152  0.02467135    -0.17690
C1215       C  0.63506899  0.29791759  0.04138850     0.10640
C1216       C  0.62072289  0.30806651  0.06343952    -0.06480
C1217       C  0.61917923  0.33587599  0.06594124    -0.17720
C1218       C  0.63203526  0.35320219  0.04743705     0.10670
S1219       S  0.63898330  0.26280551  0.03601392    -0.32690
S1220       S  0.62774959  0.38841509  0.05085518    -0.32690
H1221       H  0.61005397  0.38755943  0.07283215     0.28680
H1222       H  0.61324713  0.25607043  0.04621641     0.28670
H1223       H  0.66240654  0.30571819  0.00991777     0.19270
H1224       H  0.60927705  0.34396447  0.08336025     0.19270
C1225       C  0.96418292  0.30249231  0.38794858    -0.06560
C1226       C  0.95864656  0.30376584  0.36046014    -0.17690
C1227       C  0.97277299  0.32108206  0.34367186     0.10640
C1228       C  0.99461131  0.33632327  0.35412091    -0.06480
C1229       C  0.00164689  0.33325045  0.38128183    -0.17720
C1230       C  0.98647271  0.31687042  0.39829455     0.10670
S1231       S  0.96001857  0.32396718  0.30991332    -0.32690
S1232       S  0.99496026  0.31697670  0.43332088    -0.32690
H1233       H  0.98354425  0.29208597  0.43909311     0.28680
H1234       H  0.98455515  0.33133659  0.29804391     0.28670
H1235       H  0.94126831  0.29300658  0.35248628     0.19270
H1236       H  0.01810164  0.34496404  0.38967778     0.19270
C1237       C  0.96511366  0.42220368  0.30280813    -0.06560
C1238       C  0.96650364  0.41895945  0.33066957    -0.17690
C1239       C  0.98053543  0.39765375  0.34234063     0.10640
C1240       C  0.99505795  0.37960597  0.32617011    -0.06480
C1241       C  0.99577355  0.38445155  0.29852597    -0.17720
C1242       C  0.98123447  0.40536345  0.28686130     0.10670
S1243       S  0.97826178  0.39406456  0.37792969    -0.32690
S1244       S  0.98130136  0.40755918  0.25110656    -0.32690
H1245       H  0.98668562  0.43490159  0.25148213     0.28680
H1246       H  0.95755295  0.37480060  0.37579952     0.28670
H1247       H  0.95377819  0.43120260  0.34322489     0.19270
H1248       H  0.00687261  0.37114823  0.28564216     0.19270
C1249       C  0.05342088  0.37249870  0.31747609    -0.06560
C1250       C  0.06370950  0.36472324  0.29259423    -0.17690
C1251       C  0.07768142  0.38249402  0.27606846     0.10640
C1252       C  0.08279528  0.40862998  0.28476331    -0.06480
C1253       C  0.07087139  0.41699791  0.30873902    -0.17720
C1254       C  0.05694942  0.39927520  0.32546270     0.10670
S1255       S  0.09141871  0.36982362  0.24538967    -0.32690
S1256       S  0.04697292  0.41205432  0.35760769    -0.32690
H1257       H  0.04049515  0.38809234  0.37013810     0.28680
H1258       H  0.08850563  0.39372497  0.23129529     0.28670
H1259       H  0.06123520  0.34452144  0.28594577     0.19270
H1260       H  0.07550113  0.43668287  0.31612403     0.19270
C1261       C  0.17863329  0.40486340  0.30451476    -0.06560
C1262       C  0.20040916  0.41984127  0.31474786    -0.17690
C1263       C  0.22139144  0.40762694  0.32920582     0.10640
C1264       C  0.22030677  0.38012248  0.33390518    -0.06480
C1265       C  0.19696366  0.36587346  0.32642971    -0.17720
C1266       C  0.17690641  0.37750789  0.31060263     0.10670
S1267       S  0.24991535  0.42754121  0.33990155    -0.32690
S1268       S  0.15188570  0.35548491  0.29592467    -0.32690
H1269       H  0.15109910  0.36840748  0.27103707     0.28680
H1270       H  0.25963828  0.40931677  0.35895787     0.28670
H1271       H  0.20148103  0.44091744  0.31075350     0.19270
H1272       H  0.19635942  0.34457275  0.32927548     0.19270
C1273       C  0.08047570  0.28819110  0.37334624    -0.06560
C1274       C  0.06307545  0.28256842  0.35176536    -0.17690
C1275       C  0.04911587  0.30277067  0.33798048     0.10640
C1276       C  0.05274153  0.32966250  0.34565715    -0.06480
C1277       C  0.07003869  0.33509103  0.36740918    -0.17720
C1278       C  0.08322788  0.31483188  0.38159885     0.10670
S1279       S  0.02821096  0.29245027  0.31019086    -0.32690
S1280       S  0.10371951  0.32440416  0.40991934    -0.32690
H1281       H  0.10064999  0.30042737  0.42374818     0.28680
H1282       H  0.02801135  0.31667128  0.29672059     0.28670
H1283       H  0.06140451  0.26234034  0.34472783     0.19270
H1284       H  0.07295413  0.35534012  0.37385577     0.19270
C1285       C  0.17662445  0.25737294  0.37052477    -0.06560
C1286       C  0.19315351  0.23494811  0.36716664    -0.17690
C1287       C  0.22139738  0.23626936  0.37075385     0.10640
C1288       C  0.23408639  0.26136809  0.37358920    -0.06480
C1289       C  0.21759367  0.28406061  0.37457304    -0.17720
C1290       C  0.18925777  0.28231577  0.37401636     0.10670
S1291       S  0.23964372  0.20550041  0.37513208    -0.32690
S1292       S  0.17087175  0.31222851  0.38116440    -0.32690
H1293       H  0.15779560  0.30089027  0.40335097     0.28680
H1294       H  0.21879920  0.18827464  0.36651046     0.28670
H1295       H  0.18348724  0.21577686  0.36481696     0.19270
H1296       H  0.22678006  0.30336677  0.37748621     0.19270
C1297       C  0.26148480  0.15845316  0.32349683    -0.06560
C1298       C  0.27928337  0.15209438  0.34434159    -0.17690
C1299       C  0.27541947  0.12961836  0.35960866     0.10640
C1300       C  0.25360388  0.11232219  0.35330127    -0.06480
C1301       C  0.23629972  0.11789307  0.33166974    -0.17720
C1302       C  0.23996781  0.14106063  0.31665627     0.10670
S1303       S  0.29730678  0.12470732  0.38843354    -0.32690
S1304       S  0.21579736  0.14807789  0.29040935    -0.32690
H1305       H  0.21554608  0.17564078  0.29438868     0.28680
H1306       H  0.31530420  0.14597117  0.38400637     0.28670
H1307       H  0.29593479  0.16540777  0.34922068     0.19270
H1308       H  0.21929585  0.10483320  0.32728092     0.19270
C1309       C  0.33926493  0.18251749  0.21204628    -0.06560
C1310       C  0.33014864  0.15621520  0.21305186    -0.17690
C1311       C  0.34840459  0.13557264  0.21773976     0.10640
C1312       C  0.37593741  0.14160944  0.22323362    -0.06480
C1313       C  0.38533978  0.16770053  0.21990630    -0.17720
C1314       C  0.36738440  0.18816893  0.21373981     0.10670
S1315       S  0.33536995  0.10226121  0.21639859    -0.32690
S1316       S  0.38029691  0.22172011  0.21158134    -0.32690
H1317       H  0.40818361  0.21527552  0.21173598     0.28680
H1318       H  0.36022301  0.09043359  0.20929507     0.28670
H1319       H  0.30854281  0.15190284  0.21135650     0.19270
H1320       H  0.40660583  0.17229167  0.22365794     0.19270
C1321       C  0.37626421  0.27462951  0.13259356    -0.06560
C1322       C  0.37630915  0.30026583  0.14324374    -0.17690
C1323       C  0.35411426  0.30977612  0.15736270     0.10640
C1324       C  0.33101632  0.29331808  0.16064381    -0.06480
C1325       C  0.33071094  0.26797057  0.14887851    -0.17720
C1326       C  0.35306684  0.25847855  0.13486992     0.10670
S1327       S  0.35759924  0.34224684  0.17185471    -0.32690
S1328       S  0.35079406  0.22575044  0.12061370    -0.32690
H1329       H  0.36762245  0.23077260  0.09854804     0.28680
H1330       H  0.35535276  0.33271931  0.19817556     0.28670
H1331       H  0.39413791  0.31280600  0.14093144     0.19270
H1332       H  0.31312952  0.25512056  0.15112568     0.19270
C1333       C  0.28234014  0.38617906  0.16366924    -0.06560
C1334       C  0.30697289  0.39746856  0.17247117    -0.17690
C1335       C  0.31295083  0.39969647  0.19957547     0.10640
C1336       C  0.29402906  0.39057432  0.21847377    -0.06480
C1337       C  0.26855016  0.38111829  0.20981513    -0.17720
C1338       C  0.26278087  0.37815551  0.18265543     0.10670
S1339       S  0.34594890  0.41244764  0.20909642    -0.32690
S1340       S  0.23100010  0.36239941  0.17355289    -0.32690
H1341       H  0.23998158  0.35253493  0.14889596     0.28680
H1342       H  0.33880363  0.41847074  0.23555436     0.28670
H1343       H  0.32157217  0.40491836  0.15811159     0.19270
H1344       H  0.25439870  0.37295813  0.22423305     0.19270
C1345       C  0.40432081  0.99060895  0.33386959    -0.06560
C1346       C  0.39568183  0.99615812  0.30765335    -0.17690
C1347       C  0.40889850  0.98587345  0.28539865     0.10640
C1348       C  0.42855213  0.96573979  0.28868745    -0.06480
C1349       C  0.43803341  0.96031033  0.31463237    -0.17720
C1350       C  0.42678113  0.97310066  0.33705965     0.10670
S1351       S  0.39659420  0.99592747  0.25291853    -0.32690
S1352       S  0.44048726  0.96450209  0.36928809    -0.32690
H1353       H  0.43589750  0.98956194  0.38040127     0.28680
H1354       H  0.41995560  0.98781171  0.23898984     0.28670
H1355       H  0.37714800  0.00698954  0.30414517     0.19270
H1356       H  0.45279624  0.94464397  0.31763641     0.19270
C1357       C  0.37392056  0.97718418  0.37281029    -0.06560
C1358       C  0.35862070  0.95833086  0.35861930    -0.17690
C1359       C  0.34679851  0.93650399  0.37134391     0.10640
C1360       C  0.35197376  0.93195396  0.39878337    -0.06160
C1361       C  0.36614496  0.95136667  0.41343864    -0.17720
C1362       C  0.37666002  0.97426337  0.40081368     0.10670
S1363       S  0.32470467  0.91470901  0.35233916    -0.32690
S1364       S  0.39468121  0.99877497  0.42029135    -0.32690
H1365       H  0.38949322  0.98741834  0.44541092     0.28680
H1366       H  0.32692728  0.92785810  0.32767763     0.28670
H1367       H  0.35550844  0.96111720  0.33739378     0.19270
H1368       H  0.36986626  0.94805179  0.43449040     0.19270
C1369       C  0.35207130  0.03176701  0.37585956    -0.06560
C1370       C  0.32781352  0.01723492  0.37196770    -0.17690
C1371       C  0.30331339  0.02412034  0.38448903     0.10640
C1372       C  0.30162422  0.04752300  0.39987260    -0.06480
C1373       C  0.32604792  0.06129989  0.40521011    -0.17720
C1374       C  0.35108763  0.05371170  0.39347213     0.10670
S1375       S  0.27375178  0.00390971  0.37753946    -0.32690
S1376       S  0.38128595  0.07318034  0.39992984    -0.32690
H1377       H  0.36964865  0.09033437  0.41876882     0.28680
H1378       H  0.25867197  0.01250918  0.39969313     0.28670
H1379       H  0.32734985  0.00114167  0.35780462     0.19270
H1380       H  0.32503741  0.07943221  0.41662960     0.19270
C1381       C  0.38643958  0.04590346  0.33931381    -0.06560
C1382       C  0.36752009  0.05311882  0.31960848    -0.17690
C1383       C  0.37584711  0.06439045  0.29544590     0.10640
C1384       C  0.40288480  0.07428054  0.29228215    -0.06480
C1385       C  0.42157628  0.06898061  0.31311917    -0.17720
C1386       C  0.41397505  0.05416398  0.33595563     0.10670
S1387       S  0.35208410  0.06053926  0.26816170    -0.32690
S1388       S  0.44053638  0.04638616  0.35971951    -0.32690
H1389       H  0.42365110  0.03791928  0.38055327     0.28680
H1390       H  0.37229356  0.05680974  0.24870597     0.28670
H1391       H  0.34674844  0.04587594  0.32114373     0.19270
H1392       H  0.44236049  0.07606047  0.31156591     0.19270
C1393       C  0.43018550  0.29268123  0.05512362    -0.06560
C1394       C  0.43272429  0.32032262  0.05805722    -0.17690
C1395       C  0.41485980  0.33783946  0.04483569     0.10640
C1396       C  0.39396087  0.32777177  0.02806127    -0.06480
C1397       C  0.39424982  0.30044735  0.02242365    -0.17720
C1398       C  0.41289023  0.28324570  0.03464260     0.10670
S1399       S  0.41862135  0.37262235  0.05161733    -0.32690
S1400       S  0.40956691  0.24836281  0.02777114    -0.32690
H1401       H  0.43511409  0.24146877  0.03859316     0.28680
H1402       H  0.41152058  0.38057511  0.02563557     0.28670
H1403       H  0.44601627  0.32807485  0.07354691     0.19270
H1404       H  0.37868057  0.29186424  0.00989367     0.19270
C1405       C  0.35153890  0.35779276  0.03586082    -0.06560
C1406       C  0.35029841  0.38559440  0.03821892    -0.17690
C1407       C  0.33128790  0.39803467  0.05510337     0.10640
C1408       C  0.31192252  0.38256683  0.06913096    -0.06480
C1409       C  0.31250998  0.35494134  0.06573203    -0.17720
C1410       C  0.33204288  0.34254598  0.04983666     0.10670
S1411       S  0.33381467  0.43341319  0.05882882    -0.32690
S1412       S  0.32999715  0.30714287  0.04716781    -0.32690
H1413       H  0.35398470  0.30359636  0.06198850     0.28680
H1414       H  0.32799505  0.43350672  0.08627063     0.28670
H1415       H  0.36460644  0.39771264  0.02720643     0.19270
H1416       H  0.29779506  0.34269870  0.07613971     0.19270
C1417       C  0.08055335  0.41160942  0.71419550    -0.06560
C1418       C  0.06171070  0.39337622  0.72460899    -0.17690
C1419       C  0.04655545  0.37651446  0.70771488     0.10640
C1420       C  0.05025673  0.37768111  0.67957443    -0.06480
C1421       C  0.06659897  0.39808715  0.66927933    -0.17720
C1422       C  0.08060172  0.41566565  0.68619575     0.10670
S1423       S  0.02627719  0.35122547  0.72335984    -0.32690
S1424       S  0.10206882  0.44037276  0.67096577    -0.32690
H1425       H  0.10549012  0.45562171  0.69423363     0.28680
H1426       H  0.03771163  0.33064474  0.70845513     0.28670
H1427       H  0.06150981  0.38971760  0.74592384     0.19270
H1428       H  0.06873196  0.40010834  0.64786291     0.19270
C1429       C  0.21402033  0.35889577  0.68269950    -0.06560
C1430       C  0.19125314  0.34483289  0.69195641    -0.17690
C1431       C  0.17294190  0.35669472  0.70930483     0.10640
C1432       C  0.17486079  0.38410992  0.71402089    -0.06480
C1433       C  0.19559980  0.39892810  0.70183157    -0.17720
C1434       C  0.21556284  0.38642523  0.68668320     0.10670
S1435       S  0.15047979  0.33523612  0.72785991    -0.32690
S1436       S  0.24367573  0.40593914  0.67454867    -0.32690
H1437       H  0.25272627  0.38703994  0.65601179     0.28680
H1438       H  0.14833609  0.35156788  0.75044749     0.28670
H1439       H  0.19036409  0.32350545  0.68957088     0.19270
H1440       H  0.19665278  0.42017351  0.70475505     0.19270
C1441       C  0.08892624  0.29620614  0.62129295    -0.06560
C1442       C  0.09768464  0.31102323  0.64367775    -0.17690
C1443       C  0.08092209  0.32885100  0.65737279     0.10640
C1444       C  0.05629414  0.33842938  0.64567657    -0.06480
C1445       C  0.05038162  0.32791707  0.61991693    -0.17720
C1446       C  0.06421027  0.30544954  0.60933567     0.10670
S1447       S  0.09211956  0.33662824  0.69070584    -0.32690
S1448       S  0.04749918  0.28895159  0.58200098    -0.32690
H1449       H  0.05112095  0.26355886  0.59305699     0.28680
H1450       H  0.10482028  0.31211448  0.69566476     0.28670
H1451       H  0.11782577  0.30845462  0.65187283     0.19270
H1452       H  0.03371397  0.33589921  0.60833577     0.19270
C1453       C  0.17449909  0.24616328  0.63409578    -0.06560
C1454       C  0.18979875  0.22274641  0.63653142    -0.17690
C1455       C  0.21829940  0.22297162  0.63504807     0.10640
C1456       C  0.23257076  0.24741213  0.63470979    -0.06480
C1457       C  0.21724447  0.27084410  0.63378477    -0.17720
C1458       C  0.18880946  0.27058693  0.63286756     0.10670
S1459       S  0.23440305  0.19138228  0.63065302    -0.32690
S1460       S  0.17267554  0.30215574  0.62737682    -0.32690
H1461       H  0.16040190  0.29421359  0.60324171     0.28680
H1462       H  0.25060799  0.19999844  0.60921779     0.28670
H1463       H  0.17932517  0.20381212  0.63667008     0.19270
H1464       H  0.22757111  0.28974971  0.63245042     0.19270
C1465       C  0.33235377  0.15506425  0.79997415    -0.06560
C1466       C  0.32670003  0.12837597  0.79424405    -0.17690
C1467       C  0.34784784  0.11028701  0.78995207     0.10640
C1468       C  0.37508654  0.11952772  0.78976942    -0.06480
C1469       C  0.38047272  0.14548028  0.79867800    -0.17720
C1470       C  0.35957308  0.16304250  0.80424725     0.10670
S1471       S  0.33878658  0.07618027  0.78387182    -0.32690
S1472       S  0.36926673  0.19669089  0.81172498    -0.32690
H1473       H  0.35271950  0.19761288  0.83446967     0.28680
H1474       H  0.36467665  0.06583810  0.79005440     0.28670
H1475       H  0.30575533  0.12199688  0.79149429     0.19270
H1476       H  0.40104562  0.15332758  0.79880001     0.19270
C1477       C  0.23952030  0.10388376  0.64047833    -0.06560
C1478       C  0.26102989  0.12079223  0.63341162    -0.17690
C1479       C  0.27222785  0.13809702  0.65159194     0.10640
C1480       C  0.25996206  0.14069445  0.67678507    -0.06480
C1481       C  0.23867400  0.12360623  0.68429794    -0.17720
C1482       C  0.22856296  0.10472482  0.66634272     0.10670
S1483       S  0.30259538  0.15576267  0.64147349    -0.32690
S1484       S  0.20208006  0.08255373  0.67741098    -0.32690
H1485       H  0.19251203  0.07534309  0.65195082     0.28680
H1486       H  0.31407830  0.15708121  0.66723774     0.28670
H1487       H  0.27031110  0.11927612  0.61385663     0.19270
H1488       H  0.22941969  0.12550843  0.70378448     0.19270
C1489       C  0.30363800  0.39266389  0.95043331    -0.06560
C1490       C  0.33100350  0.40013832  0.94741058    -0.17690
C1491       C  0.35199625  0.38701234  0.96119638     0.10640
C1492       C  0.34589298  0.36524364  0.97802177    -0.06480
C1493       C  0.31824253  0.35903987  0.98235871    -0.17720
C1494       C  0.29723920  0.37241430  0.96883918     0.10670
S1495       S  0.38614219  0.39900728  0.95625253    -0.32690
S1496       S  0.26274008  0.36135115  0.97432534    -0.32690
H1497       H  0.25018521  0.38534015  0.96714480     0.28680
H1498       H  0.39426650  0.39457545  0.98280049     0.28670
H1499       H  0.33618353  0.41549801  0.93316298     0.19270
H1500       H  0.31282693  0.34301579  0.99564459     0.19270
C1501       C  0.27098791  0.38067303  0.85810703    -0.06560
C1502       C  0.29730362  0.38340606  0.84760790    -0.17690
C1503       C  0.30234782  0.37819339  0.82084081     0.10640
C1504       C  0.28072554  0.37019379  0.80414838    -0.06480
C1505       C  0.25418887  0.36872932  0.81421491    -0.17720
C1506       C  0.24915713  0.37330253  0.84114597     0.10670
S1507       S  0.33700294  0.38057760  0.80924323    -0.32690
S1508       S  0.21484802  0.36799444  0.85292776    -0.32690
H1509       H  0.22220308  0.36212412  0.87944803     0.28680
H1510       H  0.33030840  0.38293917  0.78200974     0.28670
H1511       H  0.31395492  0.39012933  0.86022786     0.19270
H1512       H  0.23778277  0.36128460  0.80167284     0.19270
C1513       C  0.41505930  0.29952785  0.93528941    -0.06560
C1514       C  0.38934436  0.29121240  0.94444629    -0.17690
C1515       C  0.37321439  0.30734851  0.96038669     0.10640
C1516       C  0.38414534  0.33103960  0.97102005    -0.06480
C1517       C  0.41132817  0.33770083  0.96484202    -0.17720
C1518       C  0.42640474  0.32291964  0.94620066     0.10670
S1519       S  0.33846018  0.29674041  0.96518563    -0.32690
S1520       S  0.45870450  0.33619986  0.93564205    -0.32690
H1521       H  0.46979181  0.31216967  0.92704527     0.28680
H1522       H  0.33699071  0.30453400  0.99183229     0.28670
H1523       H  0.38020097  0.27344881  0.93609147     0.19270
H1524       H  0.42048497  0.35515538  0.97365726     0.19270
C1525       C  0.37300485  0.27193214  0.85576332    -0.06560
C1526       C  0.35754307  0.24966481  0.86292444    -0.17690
C1527       C  0.32958619  0.24881242  0.85813109     0.10640
C1528       C  0.31696073  0.27042042  0.84528932    -0.06480
C1529       C  0.33265410  0.29248936  0.83768315    -0.17720
C1530       C  0.36057782  0.29332361  0.84254429     0.10670
S1531       S  0.31095925  0.22056819  0.87059385    -0.32690
S1532       S  0.37926326  0.32223930  0.83185664    -0.32690
H1533       H  0.40472016  0.30964251  0.82991424     0.28680
H1534       H  0.28710232  0.23466267  0.87670274     0.28670
H1535       H  0.36700061  0.23361045  0.87396404     0.19270
H1536       H  0.32328831  0.30901410  0.82739907     0.19270
C1537       C  0.38459009  0.05339739  0.66154706    -0.06560
C1538       C  0.37042683  0.07574684  0.67071007    -0.17690
C1539       C  0.38187287  0.09260644  0.69007089     0.10640
C1540       C  0.40704085  0.08581114  0.70260322    -0.06480
C1541       C  0.42319251  0.06675034  0.68985445    -0.17720
C1542       C  0.41277077  0.05177083  0.66826246     0.10670
S1543       S  0.36314310  0.12226575  0.69806863    -0.32690
S1544       S  0.43551665  0.03090349  0.64951753    -0.32690
H1545       H  0.45947327  0.03748229  0.66360625     0.28680
H1546       H  0.38568380  0.13597265  0.70879899     0.28670
H1547       H  0.34965703  0.07925040  0.66418823     0.19270
H1548       H  0.44339187  0.06261140  0.69755526     0.19270
C1549       C  0.29667286  0.04850348  0.59904048    -0.06560
C1550       C  0.29730531  0.02671800  0.61654781    -0.17690
C1551       C  0.31833934  0.02404668  0.63524617     0.10640
C1552       C  0.34377854  0.03681306  0.63132822    -0.06480
C1553       C  0.34496670  0.05596055  0.61081608    -0.17720
C1554       C  0.32144539  0.06281026  0.59569920     0.10670
S1555       S  0.30824147  0.01142270  0.66726555    -0.32690
S1556       S  0.32348035  0.09147423  0.57455669    -0.32690
H1557       H  0.31432829  0.07758060  0.55192537     0.28680
H1558       H  0.31390585  0.03574251  0.67977021     0.28670
H1559       H  0.27845951  0.01606739  0.62028046     0.19270
H1560       H  0.36379896  0.06674226  0.60765374     0.19270
C1561       C  0.20296747  0.70622167  0.62849959    -0.06560
C1562       C  0.21579214  0.72946497  0.63720576    -0.17690
C1563       C  0.23310057  0.72977684  0.65924232     0.10640
C1564       C  0.23726318  0.70608573  0.67407751    -0.06480
C1565       C  0.22468262  0.68257164  0.66527908    -0.17720
C1566       C  0.20811587  0.68226873  0.64229957     0.10670
S1567       S  0.24712172  0.76165575  0.66893197    -0.32690
S1568       S  0.19468348  0.65079508  0.63141808    -0.32690
H1569       H  0.19284839  0.65754978  0.60423228     0.28680
H1570       H  0.24247051  0.77498032  0.64466345     0.28670
H1571       H  0.21116348  0.74802948  0.62735559     0.19270
H1572       H  0.22784522  0.66433800  0.67628939     0.19270
C1573       C  0.16071930  0.64742381  0.77355978    -0.06560
C1574       C  0.18199120  0.63935202  0.75681840    -0.17690
C1575       C  0.20911891  0.64226490  0.76440455     0.10640
C1576       C  0.21539928  0.65446026  0.78894340    -0.06480
C1577       C  0.19416428  0.66411300  0.80497362    -0.17720
C1578       C  0.16688613  0.66072688  0.79745451     0.10670
S1579       S  0.23450210  0.62779417  0.74300079    -0.32690
S1580       S  0.14063417  0.67254475  0.81939170    -0.32690
H1581       H  0.11987699  0.67334439  0.79991909     0.28680
H1582       H  0.25162658  0.61927555  0.76391724     0.28670
H1583       H  0.17747056  0.62790938  0.73911322     0.19270
H1584       H  0.19884075  0.67448930  0.82332871     0.19270
C1585       C  0.33390265  0.93840560  0.61611321    -0.06560
C1586       C  0.34925654  0.95639533  0.60096476    -0.17690
C1587       C  0.36269789  0.97798567  0.61306745     0.10640
C1588       C  0.36097511  0.98173299  0.64110535    -0.06480
C1589       C  0.34583975  0.96337376  0.65603547    -0.17720
C1590       C  0.33128825  0.94290120  0.64381048     0.10670
S1591       S  0.38345310  0.99856379  0.59194555    -0.32690
S1592       S  0.30953600  0.92307457  0.66472455    -0.32690
H1593       H  0.29066439  0.91703693  0.64436805     0.28680
H1594       H  0.40394992  0.00246617  0.61115263     0.28670
H1595       H  0.35212718  0.95272320  0.57986762     0.19270
H1596       H  0.34421902  0.96580569  0.67745944     0.19270
C1597       C  0.33190585  0.84600914  0.63305742    -0.06560
C1598       C  0.31227803  0.85214680  0.65222218    -0.17690
C1599       C  0.30702533  0.83549494  0.67350704     0.10640
C1600       C  0.32206182  0.81190297  0.67638763    -0.06480
C1601       C  0.34118822  0.80494511  0.65678893    -0.17720
C1602       C  0.34627341  0.82188398  0.63499292     0.10670
S1603       S  0.27945753  0.84486338  0.69530217    -0.32690
S1604       S  0.37067696  0.81154769  0.61038120    -0.32690
H1605       H  0.37559173  0.83669983  0.59935825     0.28680
H1606       H  0.26918784  0.81901473  0.69854919     0.28670
H1607       H  0.29980358  0.86962564  0.64978478     0.19270
H1608       H  0.35236217  0.78654988  0.65864854     0.19270
C1609       C  0.41814921  0.97491795  0.72563516    -0.06560
C1610       C  0.40353826  0.99873146  0.72741667    -0.17690
C1611       C  0.38775456  0.00798297  0.70592128     0.10640
C1612       C  0.39111037  0.99682275  0.68012883    -0.06480
C1613       C  0.40941614  0.97546991  0.67763135    -0.17720
C1614       C  0.42223227  0.96404457  0.70000283     0.10670
S1615       S  0.35957907  0.02938205  0.71388388    -0.32690
S1616       S  0.44027660  0.93349078  0.69515407    -0.32690
H1617       H  0.46258649  0.94122358  0.71103676     0.28680
H1618       H  0.37029900  0.03926321  0.73799969     0.28670
H1619       H  0.39975050  0.00663738  0.74714010     0.19270
H1620       H  0.41229228  0.96640712  0.65826650     0.19270
C1621       C  0.35639054  0.92100663  0.77815631    -0.06560
C1622       C  0.34471702  0.91684411  0.80329227    -0.17690
C1623       C  0.32190464  0.90045550  0.80612890     0.10640
C1624       C  0.31095135  0.88767596  0.78331916    -0.06480
C1625       C  0.31925419  0.89635824  0.75798280    -0.17720
C1626       C  0.34278793  0.91142151  0.75509406     0.10670
S1627       S  0.30903538  0.89538199  0.83937081    -0.32690
S1628       S  0.35663264  0.91326161  0.72177863    -0.32690
H1629       H  0.38312581  0.90566823  0.72947968     0.28680
H1630       H  0.28208269  0.89042965  0.83090264     0.28670
H1631       H  0.35438730  0.92510244  0.82092428     0.19270
H1632       H  0.31031714  0.88777593  0.74013702     0.19270
C1633       C  0.32849236  0.62643252  0.92915873    -0.06560
C1634       C  0.34482538  0.60610107  0.93960078    -0.17690
C1635       C  0.36738515  0.61192606  0.95611176     0.10640
C1636       C  0.37230659  0.63856127  0.96435534    -0.06480
C1637       C  0.35989829  0.65867340  0.94913169    -0.17720
C1638       C  0.33898864  0.65268887  0.93073159     0.10670
S1639       S  0.38509786  0.58420743  0.97078077    -0.32690
S1640       S  0.32487127  0.67967837  0.91151261    -0.32690
H1641       H  0.31136589  0.66347203  0.89279624     0.28680
H1642       H  0.40709043  0.59903675  0.98071130     0.28670
H1643       H  0.33833236  0.58568351  0.93753235     0.19270
H1644       H  0.36397499  0.67925629  0.95366405     0.19270
C1645       C  0.23223011  0.65820560  0.93615306    -0.06560
C1646       C  0.20992627  0.65957041  0.91826780    -0.17690
C1647       C  0.20464978  0.68292559  0.90433879     0.10640
C1648       C  0.22194770  0.70481635  0.90829145    -0.06480
C1649       C  0.23741511  0.70582842  0.93191596    -0.17720
C1650       C  0.24143982  0.68264843  0.94687670     0.10670
S1651       S  0.17884308  0.68249271  0.87869159    -0.32690
S1652       S  0.25918993  0.68500039  0.97841871    -0.32690
H1653       H  0.25358263  0.65872604  0.98607962     0.28680
H1654       H  0.17858404  0.71008441  0.87467773     0.28670
H1655       H  0.19903405  0.64209378  0.91184850     0.19270
H1656       H  0.24878318  0.72353875  0.93703984     0.19270
C1657       C  0.43833253  0.72512116  0.95355622    -0.06560
C1658       C  0.43878710  0.69844936  0.94519083    -0.17690
C1659       C  0.42693131  0.67803518  0.96091903     0.10640
C1660       C  0.41021340  0.68472818  0.98309299    -0.06480
C1661       C  0.41026961  0.71173783  0.99063001    -0.17720
C1662       C  0.42698062  0.73051492  0.97867688     0.10670
S1663       S  0.43528468  0.64449484  0.95244483    -0.32690
S1664       S  0.42863345  0.76299410  0.99370236    -0.32690
H1665       H  0.45163263  0.77141668  0.97928353     0.28680
H1666       H  0.43656457  0.63614514  0.97919526     0.28670
H1667       H  0.44796555  0.69356511  0.92622125     0.19270
H1668       H  0.39787374  0.71862461  0.00689096     0.19270
C1669       C  0.37680829  0.78954946  0.91267331    -0.06560
C1670       C  0.35530648  0.77123468  0.91560908    -0.17690
C1671       C  0.32827060  0.77880804  0.91307565     0.10640
C1672       C  0.32249356  0.80388382  0.90198603    -0.06480
C1673       C  0.34318273  0.82321821  0.90206068    -0.17720
C1674       C  0.37008704  0.81656542  0.90866667     0.10670
S1675       S  0.30201130  0.75498124  0.92158791    -0.32690
S1676       S  0.39429111  0.84336338  0.91165922    -0.32690
H1677       H  0.41038595  0.83083379  0.93126154     0.28680
H1678       H  0.31884579  0.73775593  0.93636251     0.28670
H1679       H  0.35925372  0.75042678  0.91875170     0.19270
H1680       H  0.33874407  0.84315333  0.89530359     0.19270
C1681       C  0.68575028  0.12315749  0.80398718    -0.06560
C1682       C  0.68487376  0.15034741  0.80945207    -0.17690
C1683       C  0.70699761  0.16326003  0.82080767     0.10640
C1684       C  0.73100890  0.14887747  0.82626015    -0.06480
C1685       C  0.73151209  0.12142495  0.82223552    -0.17720
C1686       C  0.70881858  0.10825357  0.81170157     0.10670
S1687       S  0.70472758  0.19874564  0.82385528    -0.32690
S1688       S  0.71082558  0.07278568  0.80798392    -0.32690
H1689       H  0.68259753  0.06815668  0.80976213     0.28680
H1690       H  0.71151719  0.19821584  0.85107036     0.28670
H1691       H  0.66738658  0.16202984  0.80336191     0.19270
H1692       H  0.75002792  0.11042596  0.82630518     0.19270
C1693       C  0.77230915  0.14916165  0.64976805    -0.06560
C1694       C  0.75417022  0.15909190  0.66871516    -0.17690
C1695       C  0.76174150  0.16072777  0.69554511     0.10640
C1696       C  0.78821924  0.15272299  0.70343420    -0.06480
C1697       C  0.80602202  0.14222990  0.68456333    -0.17720
C1698       C  0.79828496  0.13987833  0.65792616     0.10670
S1699       S  0.73744144  0.17468976  0.71832770    -0.32690
S1700       S  0.82138759  0.12375119  0.63504125    -0.32690
H1701       H  0.84286818  0.11929929  0.65319363     0.28680
H1702       H  0.73734281  0.15221500  0.73497181     0.28670
H1703       H  0.73389195  0.16517117  0.66259359     0.19270
H1704       H  0.82623010  0.13611669  0.69080739     0.19270
C1705       C  0.96151040  0.30820161  0.60472473    -0.06560
C1706       C  0.98022913  0.29722026  0.62291051    -0.17690
C1707       C  0.99497173  0.31310554  0.64069618     0.10640
C1708       C  0.99380060  0.34110908  0.63840039    -0.06480
C1709       C  0.97700588  0.35206104  0.61837121    -0.17720
C1710       C  0.96059939  0.33600672  0.60191663     0.10670
S1711       S  0.01233030  0.29624504  0.66748065    -0.32690
S1712       S  0.93696836  0.35217422  0.57963535    -0.32690
H1713       H  0.93541526  0.33135920  0.56114152     0.28680
H1714       H  0.00094353  0.31240215  0.68715628     0.28670
H1715       H  0.98039630  0.27593905  0.62587625     0.19270
H1716       H  0.97577944  0.37338997  0.61630545     0.19270
C1717       C  0.89299264  0.25074316  0.64268258    -0.06560
C1718       C  0.89750062  0.22322655  0.64368948    -0.17690
C1719       C  0.89827318  0.20958788  0.66797368     0.10640
C1720       C  0.89470795  0.22368934  0.69198766    -0.06480
C1721       C  0.88871186  0.25089387  0.69069425    -0.17720
C1722       C  0.88697421  0.26431030  0.66645053     0.10670
S1723       S  0.90577166  0.17468002  0.66693598    -0.32690
S1724       S  0.87705715  0.29873179  0.66721252    -0.32690
H1725       H  0.86767516  0.29972807  0.64065007     0.28680
H1726       H  0.92211100  0.17466193  0.69009361     0.28670
H1727       H  0.90244666  0.21250855  0.62563969     0.19270
H1728       H  0.88484682  0.26199840  0.70855862     0.19270
C1729       C  0.96891552  0.41558093  0.71048014    -0.06560
C1730       C  0.95569158  0.39169385  0.70380725    -0.17690
C1731       C  0.96709222  0.37351737  0.68568871     0.10640
C1732       C  0.99139968  0.38026359  0.67171681    -0.06480
C1733       C  0.00007109  0.40698231  0.67365546    -0.17720
C1734       C  0.99044630  0.42390169  0.69391421     0.10670
S1735       S  0.95146028  0.34111683  0.68343136    -0.32690
S1736       S  0.00836798  0.45455442  0.69958631    -0.32690
H1737       H  0.98766904  0.46650432  0.71462716     0.28680
H1738       H  0.92782724  0.34659493  0.69819611     0.28670
H1739       H  0.93870396  0.38546365  0.71598157     0.19270
H1740       H  0.01623147  0.41406696  0.66091987     0.19270
C1741       C  0.95083416  0.37333638  0.77849578    -0.06560
C1742       C  0.92395486  0.37490399  0.76856781    -0.17690
C1743       C  0.90988325  0.35253393  0.76033118     0.10640
C1744       C  0.92214911  0.32760260  0.76309446    -0.06480
C1745       C  0.94917990  0.32572899  0.77222384    -0.17720
C1746       C  0.96374299  0.34843097  0.77983023     0.10670
S1747       S  0.87587052  0.35683796  0.74707266    -0.32690
S1748       S  0.99816726  0.34433492  0.79187071    -0.32690
H1749       H  0.99950904  0.36819140  0.80624034     0.28680
H1750       H  0.87542226  0.33313573  0.73234298     0.28670
H1751       H  0.91418374  0.39395044  0.76588922     0.19270
H1752       H  0.95830581  0.30641133  0.77517287     0.19270
C1753       C  0.62745184  0.31706259  0.93636549    -0.06560
C1754       C  0.61350305  0.33926469  0.94624340    -0.17690
C1755       C  0.62476599  0.35497730  0.96700391     0.10640
C1756       C  0.65135967  0.34970287  0.97705227    -0.06480
C1757       C  0.66571630  0.32863075  0.96573819    -0.17720
C1758       C  0.65343770  0.31131968  0.94753471     0.10670
S1759       S  0.60444514  0.38172894  0.97968603    -0.32690
S1760       S  0.67201970  0.28157048  0.93973328    -0.32690
H1761       H  0.64897065  0.26645475  0.93264523     0.28680
H1762       H  0.62651187  0.39682862  0.98927576     0.28670
H1763       H  0.59405617  0.34467781  0.93748419     0.19270
H1764       H  0.68550405  0.32344620  0.97371471     0.19270
C1765       C  0.67110982  0.28301313  0.86433824    -0.06560
C1766       C  0.68007317  0.25956810  0.87664882    -0.17690
C1767       C  0.70764052  0.25461395  0.88049360     0.10640
C1768       C  0.72695878  0.27238929  0.87001193    -0.06480
C1769       C  0.71812744  0.29570746  0.85729296    -0.17720
C1770       C  0.69036883  0.30126396  0.85449500     0.10670
S1771       S  0.71688525  0.22627571  0.90055466    -0.32690
S1772       S  0.68066222  0.33174569  0.83826002    -0.32690
H1773       H  0.65418182  0.32356545  0.83109382     0.28680
H1774       H  0.74167578  0.23696292  0.90990489     0.28670
H1775       H  0.66543963  0.24611270  0.88556586     0.19270
H1776       H  0.73286276  0.30914349  0.84853406     0.19270
C1777       C  0.73416664  0.41227509  0.94537715    -0.06560
C1778       C  0.74213907  0.38968364  0.95984295    -0.17690
C1779       C  0.72474966  0.37639140  0.97746513     0.10640
C1780       C  0.69884343  0.38701432  0.98361290    -0.06480
C1781       C  0.69069833  0.41012321  0.96967901    -0.17720
C1782       C  0.70786596  0.42254617  0.95042502     0.10670
S1783       S  0.73545599  0.34439452  0.98972828    -0.32690
S1784       S  0.69589307  0.45091185  0.93194540    -0.32690
H1785       H  0.67021465  0.45251738  0.94420264     0.28680
H1786       H  0.76230703  0.34481702  0.98002705     0.28670
H1787       H  0.76190878  0.38130191  0.95601629     0.19270
H1788       H  0.67090614  0.41846134  0.97385512     0.19270
C1789       C  0.79849150  0.37980351  0.87954145    -0.06560
C1790       C  0.80327557  0.37563629  0.85237561    -0.17690
C1791       C  0.82271846  0.35736823  0.84413795     0.10640
C1792       C  0.83642992  0.34180705  0.86341141    -0.06480
C1793       C  0.83221689  0.34649650  0.89050412    -0.17720
C1794       C  0.81425235  0.36612623  0.89880265     0.10670
S1795       S  0.82841331  0.35431570  0.80886730    -0.32690
S1796       S  0.81314202  0.37465727  0.93377524    -0.32690
H1797       H  0.83364048  0.35720865  0.94252976     0.28680
H1798       H  0.85696667  0.35344063  0.81123482     0.28670
H1799       H  0.79242262  0.38731412  0.83759108     0.19270
H1800       H  0.84284762  0.33446420  0.90511843     0.19270
C1801       C  0.06908250  0.64120279  0.66493220    -0.06560
C1802       C  0.09701263  0.64654681  0.66890899    -0.17690
C1803       C  0.11218674  0.63276801  0.68785916     0.10640
C1804       C  0.09872182  0.61572350  0.70592160    -0.06480
C1805       C  0.07273587  0.60632202  0.69859865    -0.17720
C1806       C  0.05877945  0.61760844  0.67657358     0.10670
S1807       S  0.14846253  0.63853188  0.68881697    -0.32690
S1808       S  0.03018629  0.60046999  0.66185299    -0.32690
H1809       H  0.02888951  0.58003465  0.68092022     0.28680
H1810       H  0.15437164  0.61359906  0.69999655     0.28670
H1811       H  0.10719564  0.66225830  0.65814523     0.19270
H1812       H  0.06309470  0.59103896  0.71044378     0.19270
C1813       C  0.06686646  0.67772527  0.62994009    -0.06560
C1814       C  0.07627951  0.70308103  0.63688156    -0.17690
C1815       C  0.09564588  0.71612941  0.62155815     0.10640
C1816       C  0.10715213  0.70303594  0.59955778    -0.06480
C1817       C  0.09623595  0.67870446  0.59114636    -0.17720
C1818       C  0.07590269  0.66598757  0.60611251     0.10670
S1819       S  0.10808028  0.74763166  0.63351628    -0.32690
S1820       S  0.06339621  0.63380285  0.59627406    -0.32690
H1821       H  0.07738719  0.63259707  0.57187562     0.28680
H1822       H  0.11631177  0.75708440  0.60842298     0.28670
H1823       H  0.07034024  0.71184085  0.65562413     0.19270
H1824       H  0.10545503  0.66859383  0.57444119     0.19270
C1825       C  0.71913101  0.04377342  0.64705253    -0.06560
C1826       C  0.70553564  0.04881068  0.62271362    -0.17690
C1827       C  0.71686978  0.06567224  0.60335967     0.10640
C1828       C  0.74311461  0.07639193  0.60745752    -0.06480
C1829       C  0.75835141  0.06750098  0.62963974    -0.17720
C1830       C  0.74590232  0.05356846  0.65045572     0.10670
S1831       S  0.69600450  0.07503954  0.57523944    -0.32690
S1832       S  0.76411830  0.05255269  0.68174841    -0.32690
H1833       H  0.74109811  0.05347020  0.69816474     0.28680
H1834       H  0.71764038  0.08433660  0.55946125     0.28670
H1835       H  0.68512323  0.04107836  0.61964690     0.19270
H1836       H  0.77831138  0.07610473  0.63331307     0.19270
C1837       C  0.65497954  0.07275033  0.72506493    -0.06560
C1838       C  0.66845963  0.04952060  0.73292597    -0.17690
C1839       C  0.68568926  0.03570712  0.71564810     0.10640
C1840       C  0.68758581  0.04333697  0.68840664    -0.06480
C1841       C  0.67291212  0.06602828  0.68022870    -0.17720
C1842       C  0.65724721  0.08097520  0.69821352     0.10670
S1843       S  0.70791720  0.01124882  0.73035505    -0.32690
S1844       S  0.64302432  0.11164178  0.68627086    -0.32690
H1845       H  0.61880620  0.10970163  0.70085512     0.28680
H1846       H  0.69301058  0.00713494  0.75391183     0.28670
H1847       H  0.66791801  0.04395365  0.75381057     0.19270
H1848       H  0.67403491  0.07270846  0.65975658     0.19270
C1849       C  0.67551220  0.69456157  0.02787379    -0.06560
C1850       C  0.64704398  0.69097949  0.02763735    -0.17690
C1851       C  0.63000454  0.70518204  0.04501291     0.10640
C1852       C  0.64133891  0.72403080  0.06281547    -0.06480
C1853       C  0.66962423  0.72862285  0.06187930    -0.17720
C1854       C  0.68667174  0.71394981  0.04510797     0.10670
S1855       S  0.59436542  0.69657984  0.04525487    -0.32690
S1856       S  0.72260942  0.72087707  0.04649420    -0.32690
H1857       H  0.72850605  0.69648351  0.05877752     0.28680
H1858       H  0.58511158  0.72253112  0.04923653     0.28670
H1859       H  0.63811419  0.67643635  0.01430284     0.19270
H1860       H  0.67878087  0.74253638  0.07575888     0.19270
C1861       C  0.71486936  0.66046396  0.01955074    -0.06560
C1862       C  0.74205749  0.66408427  0.01156971    -0.17690
C1863       C  0.76174658  0.64452774  0.01507956     0.10640
C1864       C  0.75781959  0.62518152  0.03499437    -0.06480
C1865       C  0.73098132  0.62136520  0.04430636    -0.17720
C1866       C  0.70936227  0.63805093  0.03581887     0.10670
S1867       S  0.79434938  0.64907545  0.99906400    -0.32690
S1868       S  0.67568023  0.63087159  0.04765641    -0.32690
H1869       H  0.67521644  0.65341638  0.06410872     0.28680
H1870       H  0.80364215  0.62323809  0.00437661     0.28670
H1871       H  0.74822576  0.68226840  0.00224022     0.19270
H1872       H  0.72723327  0.60680795  0.05976933     0.19270
C1873       C  0.63375195  0.96337232  0.70566742    -0.06560
C1874       C  0.65997271  0.95235637  0.70799404    -0.17690
C1875       C  0.68257092  0.96287644  0.69417216     0.10640
C1876       C  0.67946369  0.98593825  0.67822312    -0.06480
C1877       C  0.65289617  0.99641090  0.67545909    -0.17720
C1878       C  0.63045928  0.98579762  0.68916628     0.10670
S1879       S  0.71476225  0.94594642  0.69677929    -0.32690
S1880       S  0.59764552  0.00089259  0.68371365    -0.32690
H1881       H  0.58593852  0.99186135  0.70762823     0.28680
H1882       H  0.70665374  0.92623234  0.71495839     0.28670
H1883       H  0.66222736  0.93412011  0.71917984     0.19270
H1884       H  0.64955837  0.01331928  0.66252863     0.19270
C1885       C  0.60662167  0.88064007  0.68808206    -0.06560
C1886       C  0.62835334  0.87485735  0.70531640    -0.17690
C1887       C  0.64271932  0.85166607  0.70304496     0.10640
C1888       C  0.63565677  0.83355927  0.68289515    -0.06480
C1889       C  0.61464082  0.83959943  0.66471591    -0.17720
C1890       C  0.59979405  0.86316140  0.66723174     0.10670
S1891       S  0.67048213  0.84700416  0.72598449    -0.32690
S1892       S  0.57246275  0.86949250  0.64394767    -0.32690
H1893       H  0.57102592  0.89696621  0.64808462     0.28680
H1894       H  0.68976994  0.84963922  0.70544132     0.28670
H1895       H  0.63378340  0.88847839  0.72123685     0.19270
H1896       H  0.60960125  0.82581966  0.64887302     0.19270
C1897       C  0.72184268  0.98730672  0.64589784    -0.06560
C1898       C  0.71190040  0.98319489  0.61987727    -0.17690
C1899       C  0.72824776  0.97210145  0.59981145     0.10640
C1900       C  0.75494536  0.96299435  0.60586427    -0.06480
C1901       C  0.76554429  0.96861173  0.63123669    -0.17720
C1902       C  0.74979765  0.98098608  0.65100639     0.10670
S1903       S  0.71369858  0.96948463  0.56677939    -0.32690
S1904       S  0.76709095  0.98594217  0.68243851    -0.32690
H1905       H  0.74637900  0.99981032  0.69485735     0.28680
H1906       H  0.73875708  0.96708373  0.55347131     0.28670
H1907       H  0.69125061  0.98913987  0.61498634     0.19270
H1908       H  0.78581206  0.96168506  0.63636482     0.19270
C1909       C  0.74710184  0.86947571  0.58442545    -0.06560
C1910       C  0.74899364  0.84915440  0.56536784    -0.17690
C1911       C  0.74098575  0.82330419  0.57146755     0.10640
C1912       C  0.72964142  0.81792456  0.59661427    -0.06480
C1913       C  0.72460056  0.83872271  0.61433281    -0.17720
C1914       C  0.73416878  0.86423130  0.60913569     0.10670
S1915       S  0.74751143  0.79773915  0.54729130    -0.32690
S1916       S  0.73390885  0.88796546  0.63627100    -0.32690
H1917       H  0.71648065  0.87384421  0.65341424     0.28680
H1918       H  0.72844059  0.77953477  0.55745717     0.28670
H1919       H  0.75858821  0.85300312  0.54634754     0.19270
H1920       H  0.71650135  0.83422143  0.63389555     0.19270
C1921       C  0.99572060  0.74177059  0.61862013    -0.06560
C1922       C  0.00735267  0.74372787  0.64428662    -0.17690
C1923       C  0.01581418  0.72132948  0.65884217     0.10640
C1924       C  0.01490740  0.69591506  0.64700381    -0.06480
C1925       C  0.00441445  0.69393265  0.62080966    -0.17720
C1926       C  0.99428723  0.71626660  0.60688730     0.10670
S1927       S  0.02689532  0.72571175  0.69290408    -0.32690
S1928       S  0.97757392  0.71053834  0.57535113    -0.32690
H1929       H  0.98670292  0.73403391  0.56340008     0.28680
H1930       H  0.02712218  0.75356178  0.69303926     0.28670
H1931       H  0.00740288  0.76289153  0.65396503     0.19270
H1932       H  0.00364682  0.67468133  0.61131500     0.19270
C1933       C  0.90847221  0.78434612  0.63284002    -0.06560
C1934       C  0.89866155  0.80133369  0.65253923    -0.17690
C1935       C  0.87147701  0.79980277  0.66027808     0.10640
C1936       C  0.85411048  0.78144209  0.64744307    -0.06480
C1937       C  0.86368655  0.76556498  0.62681997    -0.17720
C1938       C  0.89090824  0.76646178  0.61965179     0.10670
S1939       S  0.86018558  0.82121579  0.68676321    -0.32690
S1940       S  0.90319681  0.74416725  0.59420553    -0.32690
H1941       H  0.87789876  0.73271470  0.58752023     0.28680
H1942       H  0.83240822  0.82075151  0.67962615     0.28670
H1943       H  0.91221427  0.81557676  0.66191946     0.19270
H1944       H  0.85023312  0.75105475  0.61773292     0.19270
C1945       C  0.98226075  0.62679810  0.71928067    -0.06560
C1946       C  0.00642906  0.63957342  0.72711352    -0.17690
C1947       C  0.02179628  0.65488385  0.70904563     0.10640
C1948       C  0.01244375  0.65805901  0.68218285    -0.06480
C1949       C  0.98808384  0.64542104  0.67463158    -0.17720
C1950       C  0.97373021  0.62913371  0.69233545     0.10670
S1951       S  0.05230159  0.67005810  0.72262195    -0.32690
S1952       S  0.94366570  0.61260850  0.67971041    -0.32690
H1953       H  0.94389543  0.59207305  0.69871282     0.28680
H1954       H  0.06176458  0.68261659  0.69956045     0.28670
H1955       H  0.01258981  0.63884333  0.74790528     0.19270
H1956       H  0.98086283  0.64714337  0.65421913     0.19270
C1957       C  0.89262263  0.64809995  0.75158434    -0.06560
C1958       C  0.89246939  0.67507994  0.75781473    -0.17690
C1959       C  0.86956316  0.69036648  0.75237379     0.10640
C1960       C  0.84678077  0.67832558  0.74004145    -0.06480
C1961       C  0.84683475  0.65132185  0.73417955    -0.17720
C1962       C  0.86972809  0.63612663  0.73933616     0.10670
S1963       S  0.87027189  0.72463261  0.76250375    -0.32690
S1964       S  0.86874727  0.60204673  0.72862581    -0.32690
H1965       H  0.89612466  0.60100784  0.72058918     0.28680
H1966       H  0.84257264  0.72591131  0.76952723     0.28670
H1967       H  0.91016876  0.68413084  0.76716091     0.19270
H1968       H  0.82922251  0.64222669  0.72470104     0.19270
C1969       C  0.75790514  0.64816389  0.93928854    -0.06560
C1970       C  0.75743495  0.67521040  0.94641969    -0.17690
C1971       C  0.73399637  0.68765157  0.95537683     0.10640
C1972       C  0.71141531  0.67220267  0.96316551    -0.06480
C1973       C  0.71213581  0.64467520  0.95825092    -0.17720
C1974       C  0.73457920  0.63276588  0.94547048     0.10670
S1975       S  0.73600194  0.72302102  0.95971320    -0.32690
S1976       S  0.73194076  0.59831365  0.93720630    -0.32690
H1977       H  0.75000984  0.59106845  0.95787119     0.28680
H1978       H  0.73003821  0.72227562  0.98704064     0.28670
H1979       H  0.77529163  0.68747672  0.94310535     0.19270
H1980       H  0.69528367  0.63237061  0.96467477     0.19270
C1981       C  0.79203075  0.66722511  0.85442927    -0.06560
C1982       C  0.77384675  0.65122513  0.83991572    -0.17690
C1983       C  0.75274465  0.66231575  0.82523327     0.10640
C1984       C  0.75065764  0.69000419  0.82339962    -0.06480
C1985       C  0.76956322  0.70615816  0.83680186    -0.17720
C1986       C  0.79028136  0.69501322  0.85230808     0.10670
S1987       S  0.72960215  0.64017896  0.80814044    -0.32690
S1988       S  0.81313033  0.71686375  0.87006961    -0.32690
H1989       H  0.83334042  0.69772453  0.87502477     0.28680
H1990       H  0.70777035  0.65814870  0.80672485     0.28670
H1991       H  0.77432907  0.62987822  0.84222654     0.19270
H1992       H  0.76907923  0.72744510  0.83395877     0.19270
C1993       C  0.64623856  0.74342446  0.93700663    -0.06560
C1994       C  0.64208809  0.71637633  0.93170098    -0.17690
C1995       C  0.65394337  0.69659056  0.94767976     0.10640
C1996       C  0.67096450  0.70357426  0.96945327    -0.06480
C1997       C  0.67265234  0.73059005  0.97641298    -0.17720
C1998       C  0.66073650  0.75044239  0.96043343     0.10670
S1999       S  0.64730872  0.66266414  0.93870718    -0.32690
S2000       S  0.66775835  0.78437432  0.96918184    -0.32690
H2001       H  0.64285452  0.79443627  0.95976982     0.28680
H2002       H  0.64930507  0.65293876  0.96497264     0.28670
H2003       H  0.63084706  0.71061817  0.91393963     0.19270
H2004       H  0.68518733  0.73660288  0.99316395     0.19270
C2005       C  0.65762530  0.76449304  0.84194290    -0.06560
C2006       C  0.64791811  0.73872523  0.83699307    -0.17690
C2007       C  0.64267639  0.72990235  0.81109124     0.10640
C2008       C  0.64680831  0.74713785  0.78932201    -0.06480
C2009       C  0.65747316  0.77253496  0.79403046    -0.17720
C2010       C  0.66364624  0.78108603  0.81993710     0.10670
S2011       S  0.63024313  0.69648389  0.80711965    -0.32690
S2012       S  0.67957270  0.81314596  0.82366197    -0.32690
H2013       H  0.69026297  0.80839288  0.84932929     0.28680
H2014       H  0.61586725  0.70114636  0.78321674     0.28670
H2015       H  0.64269169  0.72579925  0.85348468     0.19270
H2016       H  0.66236056  0.78528905  0.77731679     0.19270
C2017       C  0.54891579  0.87529395  0.80913686    -0.06560
C2018       C  0.57350401  0.88974384  0.81206631    -0.17690
C2019       C  0.58416800  0.90557378  0.79114515     0.10640
C2020       C  0.56907573  0.90915776  0.76714503    -0.06480
C2021       C  0.54346051  0.89657138  0.76558882    -0.17720
C2022       C  0.53532801  0.87742349  0.78409198     0.10670
S2023       S  0.61784057  0.91891868  0.79554680    -0.32690
S2024       S  0.51127856  0.85348288  0.77112586    -0.32690
H2025       H  0.51405374  0.83468572  0.79131484     0.28680
H2026       H  0.60784977  0.94475511  0.79915640     0.28670
H2027       H  0.58502119  0.88811632  0.83048086     0.19270
H2028       H  0.53144367  0.89854931  0.74746705     0.19270
C2029       C  0.55742407  0.84235244  0.84876300    -0.06560
C2030       C  0.56828395  0.85296298  0.87256457    -0.17690
C2031       C  0.58514780  0.83779055  0.88953616     0.10640
C2032       C  0.58994344  0.81085356  0.88367533    -0.06480
C2033       C  0.57653134  0.79971205  0.86142698    -0.17720
C2034       C  0.56227364  0.81541591  0.84311645     0.10670
S2035       S  0.60134488  0.85422704  0.91729590    -0.32690
S2036       S  0.55345144  0.80044356  0.81170387    -0.32690
H2037       H  0.56173517  0.82247123  0.79656404     0.28680
H2038       H  0.60653493  0.83116321  0.93216395     0.28670
H2039       H  0.56431400  0.87345369  0.87751880     0.19270
H2040       H  0.58084604  0.77935105  0.85604684     0.19270
C2041       C  0.50003559  0.83734136  0.85782431    -0.06560
C2042       C  0.49427659  0.81221071  0.84699907    -0.17690
C2043       C  0.48213233  0.79201723  0.86217222     0.10640
C2044       C  0.47511221  0.79673177  0.88901012    -0.06480
C2045       C  0.48196847  0.82141936  0.90026988    -0.17720
C2046       C  0.49429539  0.84166514  0.88503420     0.10670
S2047       S  0.47381461  0.76145173  0.84545459    -0.32690
S2048       S  0.50119954  0.87337793  0.90010924    -0.32690
H2049       H  0.49371501  0.86635602  0.92624188     0.28680
H2050       H  0.47462056  0.74550988  0.86844414     0.28670
H2051       H  0.49810914  0.80856720  0.82612669     0.19270
H2052       H  0.47581317  0.82544728  0.92057951     0.19270
C2053       C  0.45413410  0.90845849  0.79543216    -0.06560
C2054       C  0.47571207  0.92040816  0.80947288    -0.17690
C2055       C  0.49388773  0.90535124  0.82517705     0.10640
C2056       C  0.49050420  0.87737218  0.82703215    -0.06480
C2057       C  0.46794382  0.86587899  0.81404397    -0.17720
C2058       C  0.45095392  0.88062364  0.79724544     0.10670
S2059       S  0.51999224  0.92364861  0.84285164    -0.32690
S2060       S  0.42675460  0.86224903  0.77716530    -0.32690
H2061       H  0.42663378  0.88017762  0.75563975     0.28680
H2062       H  0.52794844  0.90361735  0.86051223     0.28670
H2063       H  0.47794431  0.94175478  0.80884851     0.19270
H2064       H  0.46495755  0.84466173  0.81477067     0.19270
C2065       C  0.85646135  0.54934536  0.85875527    -0.06560
C2066       C  0.86068497  0.55361961  0.88624980    -0.17690
C2067       C  0.84501220  0.57217056  0.90046893     0.10640
C2068       C  0.82297991  0.58506671  0.88762382    -0.06480
C2069       C  0.81652569  0.57756883  0.86122733    -0.17720
C2070       C  0.83382053  0.56140657  0.84638658     0.10670
S2071       S  0.85586710  0.58040128  0.93379747    -0.32690
S2072       S  0.82683695  0.55793365  0.81129116    -0.32690
H2073       H  0.85026485  0.57235524  0.80412463     0.28680
H2074       H  0.82948079  0.58302687  0.94401617     0.28670
H2075       H  0.87708559  0.54337785  0.89643383     0.19270
H2076       H  0.79971944  0.58716308  0.85096662     0.19270
C2077       C  0.89609592  0.54277478  0.82532508    -0.06560
C2078       C  0.89445237  0.53828532  0.79762759    -0.17690
C2079       C  0.91270289  0.55019898  0.77976416     0.10640
C2080       C  0.93229298  0.56857524  0.78915749    -0.06480
C2081       C  0.93577979  0.57105724  0.81689542    -0.17720
C2082       C  0.91830709  0.55805148  0.83500656     0.10670
S2083       S  0.90806044  0.54358049  0.74471864    -0.32690
S2084       S  0.92463079  0.56143526  0.87029477    -0.32690
H2085       H  0.94951967  0.57518791  0.86827712     0.28680
H2086       H  0.93433069  0.55173345  0.73713926     0.28670
H2087       H  0.87818034  0.52609960  0.78965266     0.19270
H2088       H  0.95059742  0.58521949  0.82431092     0.19270
C2089       C  0.88761818  0.48587408  0.82781751    -0.06560
C2090       C  0.91590972  0.48639949  0.83273377    -0.17690
C2091       C  0.93453900  0.47423041  0.81549150     0.10640
C2092       C  0.92516612  0.45994872  0.79292561    -0.06480
C2093       C  0.89687858  0.45856859  0.78835439    -0.17720
C2094       C  0.87820379  0.47157470  0.80519035     0.10670
S2095       S  0.97028824  0.47762689  0.82343296    -0.32690
S2096       S  0.84271603  0.46982265  0.79626873    -0.32690
H2097       H  0.83894854  0.49733243  0.79786431     0.28680
H2098       H  0.97958201  0.47530409  0.79703932     0.28670
H2099       H  0.92368786  0.49745845  0.84967044     0.19270
H2100       H  0.88923209  0.44690702  0.77177788     0.19270
C2101       C  0.84667038  0.49313206  0.86116955    -0.06560
C2102       C  0.81922837  0.49783587  0.85417026    -0.17690
C2103       C  0.79745184  0.48793532  0.86946482     0.10640
C2104       C  0.80257102  0.47237151  0.89240507    -0.06480
C2105       C  0.82996196  0.47008105  0.90097451    -0.17720
C2106       C  0.85186726  0.48006511  0.88561743     0.10670
S2107       S  0.76333359  0.49322441  0.85712233    -0.32690
S2108       S  0.88649170  0.47514191  0.89686315    -0.32690
H2109       H  0.88003977  0.46334082  0.92148625     0.28680
H2110       H  0.75036372  0.48791085  0.88152733     0.28670
H2111       H  0.81453554  0.50862864  0.83613084     0.19270
H2112       H  0.83433602  0.45770599  0.91813113     0.19270
C2113       C  0.88673721  0.54990597  0.18171024    -0.06560
C2114       C  0.91377481  0.54082390  0.18573889    -0.17690
C2115       C  0.93239450  0.55368052  0.20309966     0.10640
C2116       C  0.92439428  0.57651080  0.21733552    -0.06480
C2117       C  0.89728040  0.58523629  0.21369973    -0.17720
C2118       C  0.87889547  0.57291201  0.19592674     0.10670
S2119       S  0.96665069  0.54101223  0.20470610    -0.32690
S2120       S  0.84640246  0.58896470  0.19148002    -0.32690
H2121       H  0.83092639  0.56572609  0.19042110     0.28680
H2122       H  0.97221079  0.54989118  0.23070783     0.28670
H2123       H  0.92072833  0.52369058  0.17478333     0.19270
H2124       H  0.89089941  0.60332897  0.22338156     0.19270
C2125       C  0.85202097  0.54766986  0.14125749    -0.06560
C2126       C  0.82324365  0.54665565  0.14054533    -0.17690
C2127       C  0.80798110  0.56019452  0.12108055     0.10640
C2128       C  0.82144845  0.57488984  0.10111689    -0.06480
C2129       C  0.85016861  0.57452134  0.10079906    -0.17720
C2130       C  0.86548831  0.56169194  0.12068375     0.10670
S2131       S  0.77150630  0.56066856  0.12480034    -0.32690
S2132       S  0.90201287  0.56553914  0.11914712    -0.32690
H2133       H  0.90847138  0.54085476  0.13017290     0.28680
H2134       H  0.76587275  0.55957227  0.09735604     0.28670
H2135       H  0.81240407  0.53632901  0.15620781     0.19270
H2136       H  0.86082492  0.58647332  0.08616848     0.19270
C2137       C  0.84351343  0.49057262  0.15170977    -0.06560
C2138       C  0.81988721  0.47968125  0.16320447    -0.17690
C2139       C  0.80218784  0.46292707  0.14883594     0.10640
C2140       C  0.80809822  0.45577382  0.12219003    -0.06480
C2141       C  0.83114142  0.46733800  0.11025370    -0.17720
C2142       C  0.84887688  0.48430407  0.12457621     0.10670
S2143       S  0.77366467  0.44896209  0.16656462    -0.32690
S2144       S  0.87927989  0.49484292  0.10756944    -0.32690
H2145       H  0.89599610  0.49583990  0.13032248     0.28680
H2146       H  0.75715361  0.44521107  0.14386443     0.28670
H2147       H  0.81534173  0.48371139  0.18388528     0.19270
H2148       H  0.83678893  0.46114163  0.09034417     0.19270
C2149       C  0.87492674  0.49496251  0.19293824    -0.06560
C2150       C  0.89558947  0.47632115  0.18865779    -0.17690
C2151       C  0.91115590  0.46628593  0.20986835     0.10640
C2152       C  0.90587623  0.47443667  0.23630800    -0.06480
C2153       C  0.88563031  0.49351268  0.24050848    -0.17720
C2154       C  0.86969342  0.50328477  0.21944905     0.10670
S2155       S  0.93633024  0.44169943  0.20230167    -0.32690
S2156       S  0.84189700  0.52470705  0.22849895    -0.32690
H2157       H  0.82664012  0.52189994  0.20499004     0.28680
H2158       H  0.95565935  0.45293609  0.21968720     0.28670
H2159       H  0.89995232  0.46975574  0.16858673     0.19270
H2160       H  0.88030959  0.49880385  0.26078328     0.19270
C2161       C  0.55056233  0.82621994  0.14378878    -0.06560
C2162       C  0.54047987  0.80024007  0.14702486    -0.17690
C2163       C  0.55074070  0.77875283  0.13262103     0.10640
C2164       C  0.57446306  0.78173681  0.11697460    -0.06480
C2165       C  0.58503750  0.80741929  0.11371481    -0.17720
C2166       C  0.57338395  0.82946990  0.12663585     0.10670
S2167       S  0.53327305  0.74743443  0.13597017    -0.32690
S2168       S  0.58974190  0.86082498  0.12134571    -0.32690
H2169       H  0.60143905  0.86087106  0.14705133     0.28680
H2170       H  0.54334369  0.73650665  0.11217639     0.28670
H2171       H  0.52425590  0.79636534  0.16097515     0.19270
H2172       H  0.60367328  0.81011299  0.10249711     0.19270
C2173       C  0.55382194  0.86625516  0.17658231    -0.06560
C2174       C  0.56130654  0.85518301  0.20115247    -0.17690
C2175       C  0.57248724  0.87065622  0.22154044     0.10640
C2176       C  0.58160876  0.89682115  0.21615433    -0.06480
C2177       C  0.57378332  0.90837286  0.19178157    -0.17720
C2178       C  0.55877197  0.89382389  0.17254020     0.10670
S2179       S  0.57622703  0.85537442  0.25397189    -0.32690
S2180       S  0.54740958  0.91167457  0.14333636    -0.32690
H2181       H  0.54080393  0.88968111  0.12756064     0.28680
H2182       H  0.57857309  0.87930471  0.26816892     0.28670
H2183       H  0.55630260  0.83465402  0.20527407     0.19270
H2184       H  0.58028516  0.92839336  0.18725074     0.19270
C2185       C  0.49583859  0.87076244  0.17891836    -0.06560
C2186       C  0.49965583  0.86812427  0.20671465    -0.17690
C2187       C  0.48838904  0.88592586  0.22496811     0.10640
C2188       C  0.47207332  0.90699493  0.21575481    -0.06480
C2189       C  0.46906598  0.91041174  0.18797599    -0.17720
C2190       C  0.48033682  0.89255218  0.16959811     0.10670
S2191       S  0.49276764  0.87877133  0.25994783    -0.32690
S2192       S  0.47190208  0.89777797  0.13490725    -0.32690
H2193       H  0.49441681  0.88485614  0.12408609     0.28680
H2194       H  0.49454850  0.90541765  0.26772583     0.28670
H2195       H  0.51058151  0.85127916  0.21456764     0.19270
H2196       H  0.45561042  0.92581155  0.18061373     0.19270
C2197       C  0.48997262  0.83178466  0.14529160    -0.06560
C2198       C  0.49250162  0.82961962  0.11739214    -0.17690
C2199       C  0.47687967  0.81141722  0.10255987     0.10640
C2200       C  0.45773687  0.79483203  0.11548229    -0.06480
C2201       C  0.45537038  0.79664297  0.14328492    -0.17720
C2202       C  0.47137378  0.81443015  0.15823975     0.10670
S2203       S  0.48105342  0.81143605  0.06684235    -0.32690
S2204       S  0.46787270  0.81288866  0.19387637    -0.32690
H2205       H  0.49609653  0.81051799  0.19827695     0.28680
H2206       H  0.47351489  0.78484678  0.06307531     0.28670
H2207       H  0.50695241  0.84215730  0.10702362     0.19270
H2208       H  0.44026408  0.78460521  0.15337738     0.19270
C2209       C  0.17428144  0.53847455  0.81964482    -0.06560
C2210       C  0.17926368  0.54089401  0.79215624    -0.17690
C2211       C  0.16029704  0.55240633  0.77476636     0.10640
C2212       C  0.13531533  0.56202451  0.78470501    -0.06480
C2213       C  0.12907294  0.55705641  0.81165715    -0.17720
C2214       C  0.14819068  0.54555888  0.82912856     0.10670
S2215       S  0.17102138  0.55814993  0.74092757    -0.32690
S2216       S  0.13865935  0.54227432  0.86365965    -0.32690
H2217       H  0.15292926  0.51868649  0.86842498     0.28680
H2218       H  0.14628546  0.54933498  0.72976229     0.28670
H2219       H  0.19852965  0.53485598  0.78403418     0.19270
H2220       H  0.11029471  0.56482441  0.81979561     0.19270
C2221       C  0.21229752  0.54426487  0.85598283    -0.06560
C2222       C  0.21046247  0.54112031  0.88385934    -0.17690
C2223       C  0.22779057  0.55479409  0.90153254     0.10640
C2224       C  0.24697005  0.57330752  0.89165973    -0.06480
C2225       C  0.24873631  0.57680395  0.86393565    -0.17720
C2226       C  0.23179216  0.56264636  0.84607314     0.10670
S2227       S  0.22434384  0.54783683  0.93666853    -0.32690
S2228       S  0.23611881  0.56791787  0.81072381    -0.32690
H2229       H  0.25631075  0.58769106  0.81237105     0.28680
H2230       H  0.25103865  0.55535273  0.94381661     0.28670
H2231       H  0.19571548  0.52741356  0.89205460     0.19270
H2232       H  0.26279786  0.59152246  0.85633719     0.19270
C2233       C  0.23866094  0.45676939  0.90283304    -0.06560
C2234       C  0.25384263  0.47362079  0.88627091    -0.17690
C2235       C  0.24149016  0.48744717  0.86505387     0.10640
C2236       C  0.21281572  0.48575568  0.86117328    -0.06480
C2237       C  0.19742710  0.47192373  0.88030363    -0.17720
C2238       C  0.20998038  0.45773716  0.90105338     0.10670
S2239       S  0.26335770  0.50459051  0.84193683    -0.32690
S2240       S  0.18872100  0.43806924  0.92261610    -0.32690
H2241       H  0.20897389  0.43355794  0.94209517     0.28680
H2242       H  0.28689912  0.50480002  0.85810635     0.28670
H2243       H  0.27588825  0.47253635  0.88726270     0.19270
H2244       H  0.17543460  0.47157045  0.87882319     0.19270
C2245       C  0.18251791  0.48258611  0.81851249    -0.06560
C2246       C  0.15591404  0.47324685  0.82389270    -0.17690
C2247       C  0.14098730  0.45812221  0.80504672     0.10640
C2248       C  0.15203557  0.45309297  0.77954366    -0.06480
C2249       C  0.17778523  0.46410555  0.77381021    -0.17720
C2250       C  0.19342642  0.47744186  0.79295853     0.10670
S2251       S  0.10895112  0.44421181  0.81516733    -0.32690
S2252       S  0.22796097  0.48521112  0.78350447    -0.32690
H2253       H  0.23072095  0.50818332  0.79865766     0.28680
H2254       H  0.09401239  0.46270150  0.80003425     0.28670
H2255       H  0.14671357  0.47741068  0.84297994     0.19270
H2256       H  0.18673152  0.46087407  0.75435294     0.19270
C2257       C  0.55488148  0.20659028  0.84409995    -0.06560
C2258       C  0.55323436  0.23280948  0.83473314    -0.17690
C2259       C  0.56403763  0.25433363  0.84893140     0.10640
C2260       C  0.57869180  0.25020728  0.87291241    -0.06480
C2261       C  0.58012077  0.22415761  0.88289873    -0.17720
C2262       C  0.56783620  0.20261950  0.86923324     0.10670
S2263       S  0.56035466  0.28675483  0.83418860    -0.32690
S2264       S  0.56989163  0.17059287  0.88475367    -0.32690
H2265       H  0.54322663  0.16325466  0.87759850     0.28680
H2266       H  0.56268832  0.30084492  0.85828928     0.28670
H2267       H  0.54406008  0.23687887  0.81564751     0.19270
H2268       H  0.59186926  0.22037280  0.90087785     0.19270
C2269       C  0.58908289  0.12574254  0.78439344    -0.06560
C2270       C  0.58432622  0.15079107  0.77313349    -0.17690
C2271       C  0.56995187  0.17036332  0.78708257     0.10640
C2272       C  0.55960665  0.16500096  0.81283519    -0.06480
C2273       C  0.56269481  0.13926973  0.82308492    -0.17720
C2274       C  0.57680407  0.11966576  0.80909808     0.10670
S2275       S  0.56678710  0.20228485  0.77165472    -0.32690
S2276       S  0.58086621  0.08779861  0.82488941    -0.32690
H2277       H  0.58760031  0.07408312  0.80142340     0.28680
H2278       H  0.58269418  0.21458525  0.79152251     0.28670
H2279       H  0.59423312  0.15605263  0.75457355     0.19270
H2280       H  0.55441544  0.13432270  0.84233817     0.19270
C2281       C  0.47137568  0.12347216  0.77599937    -0.06560
C2282       C  0.48027566  0.11716559  0.80208416    -0.17690
C2283       C  0.49383545  0.13582132  0.81836745     0.10640
C2284       C  0.50106680  0.16089085  0.80786447    -0.06480
C2285       C  0.49572319  0.16552619  0.78060215    -0.17720
C2286       C  0.48052790  0.14765955  0.76494895     0.10670
S2287       S  0.49963879  0.12788723  0.85304709    -0.32690
S2288       S  0.47075085  0.15835670  0.73204588    -0.32690
H2289       H  0.48528932  0.13781765  0.71970165     0.28680
H2290       H  0.49310214  0.10079829  0.85137846     0.28670
H2291       H  0.47352370  0.09866351  0.81081705     0.19270
H2292       H  0.50242773  0.18354583  0.77126608     0.19270
C2293       C  0.49631352  0.20145822  0.83940046    -0.06560
C2294       C  0.48959355  0.19627694  0.86623517    -0.17690
C2295       C  0.47373397  0.21397719  0.88120072     0.10640
C2296       C  0.46574291  0.23833504  0.86982771    -0.06480
C2297       C  0.47386717  0.24406077  0.84360147    -0.17720
C2298       C  0.48766996  0.22570007  0.82796353     0.10670
S2299       S  0.46206014  0.20334980  0.91343611    -0.32690
S2300       S  0.49102117  0.23427297  0.79318175    -0.32690
H2301       H  0.51491133  0.22034610  0.78837822     0.28680
H2302       H  0.47286999  0.22551976  0.92666493     0.28670
H2303       H  0.49619125  0.17808545  0.87555561     0.19270
H2304       H  0.46712888  0.26235161  0.83432174     0.19270
C2305       C  0.91876880  0.85269842  0.53155673    -0.06560
C2306       C  0.91675350  0.82494059  0.52911857    -0.17690
C2307       C  0.93559960  0.80773695  0.54132494     0.10640
C2308       C  0.95532354  0.81777017  0.55928523    -0.06480
C2309       C  0.95833368  0.84551430  0.56086546    -0.17720
C2310       C  0.94059314  0.86294911  0.54707427     0.10670
S2311       S  0.93212033  0.77247338  0.53663880    -0.32690
S2312       S  0.94507542  0.89823760  0.55074622    -0.32690
H2313       H  0.96991543  0.89716899  0.56487249     0.28680
H2314       H  0.91315663  0.77374362  0.51549405     0.28670
H2315       H  0.89962868  0.81651846  0.51843703     0.19270
H2316       H  0.97281368  0.85349486  0.57514124     0.19270
C2317       C  0.88034700  0.88763550  0.53767436    -0.06560
C2318       C  0.87172052  0.87642634  0.56195039    -0.17690
C2319       C  0.85092099  0.88801052  0.57720818     0.10640
C2320       C  0.83670090  0.91041317  0.56732047    -0.06480
C2321       C  0.84787558  0.92383953  0.54533703    -0.17720
C2322       C  0.87042748  0.91343063  0.53138421     0.10670
S2323       S  0.84126504  0.87296703  0.60856369    -0.32690
S2324       S  0.88491760  0.93356851  0.50537954    -0.32690
H2325       H  0.91095245  0.92233804  0.50753257     0.28680
H2326       H  0.86232920  0.85411528  0.60962411     0.28670
H2327       H  0.88003571  0.85759181  0.56825742     0.19270
H2328       H  0.83814770  0.94170832  0.53807757     0.19270
C2329       C  0.86355327  0.87867764  0.48008220    -0.06560
C2330       C  0.83899762  0.87713189  0.49444104    -0.17690
C2331       C  0.81518664  0.89009966  0.48591701     0.10640
C2332       C  0.81383682  0.90259519  0.46058137    -0.06480
C2333       C  0.83796801  0.90357684  0.44555261    -0.17720
C2334       C  0.86258183  0.89211717  0.45503971     0.10670
S2335       S  0.78604630  0.88854702  0.50760655    -0.32690
S2336       S  0.89199846  0.89505544  0.43405395    -0.32690
H2337       H  0.89046275  0.86841655  0.42597117     0.28680
H2338       H  0.77391144  0.91198601  0.49812029     0.28670
H2339       H  0.83835531  0.86609931  0.51296505     0.19270
H2340       H  0.83733089  0.91201940  0.42567203     0.19270
C2341       C  0.90552420  0.84703587  0.47524220    -0.06560
C2342       C  0.89212952  0.82419442  0.46568401    -0.17690
C2343       C  0.90640471  0.80364225  0.45286580     0.10640
C2344       C  0.93496576  0.80548156  0.44910861    -0.06480
C2345       C  0.94839210  0.82802763  0.45913060    -0.17720
C2346       C  0.93416092  0.84884336  0.47139859     0.10670
S2347       S  0.88683446  0.77613552  0.44013549    -0.32690
S2348       S  0.95370253  0.87790620  0.47996078    -0.32690
H2349       H  0.93214067  0.89577119  0.47675410     0.28680
H2350       H  0.90870780  0.75821494  0.43932084     0.28670
H2351       H  0.87035515  0.82213594  0.46862775     0.19270
H2352       H  0.96991812  0.83063107  0.45503624     0.19270
C2353       C  0.83982506  0.17075265  0.52544628    -0.06560
C2354       C  0.84095346  0.14343587  0.53107418    -0.17690
C2355       C  0.82140455  0.13100668  0.54745790     0.10640
C2356       C  0.79911113  0.14586428  0.55712891    -0.06480
C2357       C  0.79758069  0.17288413  0.55044287    -0.17720
C2358       C  0.81781064  0.18556266  0.53570515     0.10670
S2359       S  0.82652227  0.09698447  0.55737782    -0.32690
S2360       S  0.81335855  0.22056350  0.53008685    -0.32690
H2361       H  0.81982482  0.21997059  0.50287529     0.28680
H2362       H  0.85112244  0.09298101  0.54368036     0.28670
H2363       H  0.85750973  0.13195528  0.52290155     0.19270
H2364       H  0.78070696  0.18462506  0.55771662     0.19270
C2365       C  0.87908861  0.20332495  0.51864538    -0.06560
C2366       C  0.87634305  0.23021764  0.51160208    -0.17690
C2367       C  0.88974932  0.25015376  0.52613349     0.10640
C2368       C  0.90695581  0.24311507  0.54763964    -0.06480
C2369       C  0.91269486  0.21619825  0.55197642    -0.17720
C2370       C  0.89887047  0.19635137  0.53794762     0.10670
S2371       S  0.88187839  0.28406901  0.51813521    -0.32690
S2372       S  0.90675163  0.16249811  0.54623027    -0.32690
H2373       H  0.90269987  0.15275598  0.52022959     0.28680
H2374       H  0.90635974  0.29469785  0.52812676     0.28670
H2375       H  0.86262582  0.23585103  0.49559664     0.19270
H2376       H  0.92606823  0.21056702  0.56831928     0.19270
C2377       C  0.87869870  0.19092652  0.46054735    -0.06560
C2378       C  0.90601494  0.19688165  0.46762940    -0.17690
C2379       C  0.91961888  0.21873483  0.45635422     0.10640
C2380       C  0.90743887  0.23222113  0.43474415    -0.06480
C2381       C  0.88384564  0.22128032  0.42316038    -0.17720
C2382       C  0.86861539  0.20203221  0.43639816     0.10670
S2383       S  0.95064452  0.22989106  0.47215862    -0.32690
S2384       S  0.83513415  0.19597512  0.42292309    -0.32690
H2385       H  0.82251735  0.20976186  0.44386486     0.28680
H2386       H  0.94486542  0.25706931  0.47015846     0.28670
H2387       H  0.91547220  0.18678429  0.48431716     0.19270
H2388       H  0.87511240  0.23052868  0.40555779     0.19270
C2389       C  0.79611901  0.12819847  0.44605370    -0.06560
C2390       C  0.82344479  0.12115030  0.44166332    -0.17690
C2391       C  0.84490929  0.13549729  0.45381913     0.10640
C2392       C  0.83880100  0.15787351  0.46957198    -0.06480
C2393       C  0.81128526  0.16399498  0.47422038    -0.17720
C2394       C  0.79020140  0.14876348  0.46393189     0.10670
S2395       S  0.87984982  0.12609103  0.44814549    -0.32690
S2396       S  0.75580465  0.15850263  0.47193043    -0.32690
H2397       H  0.74417186  0.13329689  0.46809816     0.28680
H2398       H  0.87402745  0.10317164  0.43321984     0.28670
H2399       H  0.82791169  0.10557903  0.42753383     0.19270
H2400       H  0.80587406  0.18165427  0.48488392     0.19270
C2401       C  0.23281631  0.84261110  0.53762732    -0.06560
C2402       C  0.24106148  0.86810828  0.52888652    -0.17690
C2403       C  0.26181045  0.88229177  0.54229677     0.10640
C2404       C  0.27119092  0.87315307  0.56731812    -0.06480
C2405       C  0.25673006  0.85231025  0.57934863    -0.17720
C2406       C  0.23902159  0.83600108  0.56471773     0.10670
S2407       S  0.27713062  0.90987418  0.52516900    -0.32690
S2408       S  0.22707814  0.80637007  0.58145069    -0.32690
H2409       H  0.24444538  0.80722473  0.60385922     0.28680
H2410       H  0.30408898  0.90304995  0.53187785     0.28670
H2411       H  0.23401822  0.87548974  0.50979016     0.19270
H2412       H  0.26181205  0.84700280  0.59972077     0.19270
C2413       C  0.20429153  0.79986661  0.52683522    -0.06560
C2414       C  0.21577837  0.77443680  0.52602494    -0.17690
C2415       C  0.20136374  0.75213177  0.53373528     0.10640
C2416       C  0.17675820  0.75518452  0.54765601    -0.06480
C2417       C  0.16458707  0.78044407  0.54847265    -0.17720
C2418       C  0.17770023  0.80268299  0.53722893     0.10670
S2419       S  0.21643242  0.72024763  0.52701916    -0.32690
S2420       S  0.16075297  0.83422658  0.53887548    -0.32690
H2421       H  0.17437547  0.84577669  0.51714526     0.28680
H2422       H  0.19184329  0.70592614  0.52869849     0.28670
H2423       H  0.23647199  0.77179679  0.51952183     0.19270
H2424       H  0.14565281  0.78314545  0.55915260     0.19270
C2425       C  0.21902755  0.80057939  0.47251093    -0.06560
C2426       C  0.19185389  0.80287043  0.46351219    -0.17690
C2427       C  0.17848826  0.78189446  0.44975917     0.10640
C2428       C  0.19123677  0.75658734  0.44798919    -0.06480
C2429       C  0.21759437  0.75440573  0.45936880    -0.17720
C2430       C  0.23246385  0.77643160  0.46789378     0.10670
S2431       S  0.14614605  0.78867692  0.43383666    -0.32690
S2432       S  0.26833105  0.77179687  0.47387194    -0.32690
H2433       H  0.27577704  0.79404342  0.45864712     0.28680
H2434       H  0.14485807  0.81577136  0.44017131     0.28670
H2435       H  0.18134859  0.82137496  0.46689699     0.19270
H2436       H  0.22781994  0.73546637  0.46021139     0.19270
C2437       C  0.25353093  0.83836695  0.48056701    -0.06560
C2438       C  0.24748015  0.85401499  0.45811818    -0.17690
C2439       C  0.26745297  0.86937076  0.44537320     0.10640
C2440       C  0.29448606  0.86974321  0.45555800    -0.06480
C2441       C  0.30016663  0.85551490  0.47898496    -0.17720
C2442       C  0.28049533  0.83951912  0.49132378     0.10670
S2443       S  0.25682883  0.88637026  0.41528066    -0.32690
S2444       S  0.29262158  0.82038827  0.51952633    -0.32690
H2445       H  0.27106643  0.80246505  0.52141021     0.28680
H2446       H  0.28221174  0.89402912  0.40532501     0.28670
H2447       H  0.22700266  0.85362113  0.44986833     0.19270
H2448       H  0.32096512  0.85501110  0.48642739     0.19270
C2449       C  0.55800116  0.15154357  0.18640747    -0.06560
C2450       C  0.57174775  0.15698731  0.21035384    -0.17690
C2451       C  0.58261126  0.13672737  0.22627441     0.10640
C2452       C  0.58220935  0.11013803  0.21733580    -0.06480
C2453       C  0.56802944  0.10454366  0.19351902    -0.17720
C2454       C  0.55631698  0.12473910  0.17786191     0.10670
S2455       S  0.59957640  0.14628306  0.25669920    -0.32690
S2456       S  0.54206265  0.11469280  0.14612398    -0.32690
H2457       H  0.53614485  0.13978196  0.13584511     0.28680
H2458       H  0.58964610  0.12432681  0.27090640     0.28670
H2459       H  0.57336982  0.17722524  0.21724828     0.19270
H2460       H  0.56877550  0.08462044  0.18553810     0.19270
C2461       C  0.55714111  0.19494817  0.15780160    -0.06560
C2462       C  0.57336664  0.18740788  0.13599105    -0.17690
C2463       C  0.58766374  0.20612180  0.12038078     0.10640
C2464       C  0.58642452  0.23351060  0.12649107    -0.06480
C2465       C  0.56994990  0.24118347  0.14792823    -0.17720
C2466       C  0.55587589  0.22250346  0.16374257     0.10670
S2467       S  0.60764106  0.19361719  0.09311375    -0.32690
S2468       S  0.53920464  0.23536801  0.19279695    -0.32690
H2469       H  0.54555111  0.21367333  0.20899880     0.28680
H2470       H  0.60769225  0.21714921  0.07812508     0.28670
H2471       H  0.57509189  0.16664514  0.13099735     0.19270
H2472       H  0.56959226  0.26187165  0.15364321     0.19270
C2473       C  0.49648624  0.19210987  0.16028411    -0.06560
C2474       C  0.49736162  0.19133724  0.13212711    -0.17690
C2475       C  0.48105250  0.20827521  0.11614800     0.10640
C2476       C  0.46458711  0.22767451  0.12849857    -0.06480
C2477       C  0.46505342  0.22908485  0.15658249    -0.17720
C2478       C  0.47909081  0.21076901  0.17227757     0.10670
S2479       S  0.48010038  0.20351677  0.08045886    -0.32690
S2480       S  0.47332318  0.21231461  0.20755782    -0.32690
H2481       H  0.45882291  0.18822806  0.20763979     0.28680
H2482       H  0.49953963  0.18311775  0.07941062     0.28670
H2483       H  0.51019875  0.17679762  0.12265515     0.19270
H2484       H  0.45311808  0.24398953  0.16672193     0.19270
C2485       C  0.50015096  0.15227904  0.19301705    -0.06560
C2486       C  0.48644707  0.13184003  0.17949294    -0.17690
C2487       C  0.47249153  0.11179637  0.19330652     0.10640
C2488       C  0.46931036  0.11341414  0.22134362    -0.06480
C2489       C  0.48513243  0.13217030  0.23512481    -0.17720
C2490       C  0.50083413  0.15127745  0.22142175     0.10670
S2491       S  0.45559972  0.08650792  0.17393314    -0.32690
S2492       S  0.51858777  0.17595269  0.24089927    -0.32690
H2493       H  0.51735892  0.16244469  0.26544188     0.28680
H2494       H  0.45096857  0.06933787  0.19560441     0.28670
H2495       H  0.48633374  0.13163407  0.15788022     0.19270
H2496       H  0.48264386  0.13387029  0.25651447     0.19270
C2497       C  0.20269881  0.53591985  0.13330445    -0.06560
C2498       C  0.22955804  0.53854573  0.14312316    -0.17690
C2499       C  0.25022169  0.55093627  0.12823897     0.10640
C2500       C  0.24429774  0.56155792  0.10276874    -0.06480
C2501       C  0.21757316  0.55869560  0.09275891    -0.17720
C2502       C  0.19686742  0.54646891  0.10776660     0.10670
S2503       S  0.28327521  0.55432884  0.14372638    -0.32690
S2504       S  0.16292518  0.54708094  0.09427301    -0.32690
H2505       H  0.15229594  0.55934020  0.11710407     0.28680
H2506       H  0.29812691  0.55325635  0.11988703     0.28670
H2507       H  0.23457217  0.53103995  0.16276195     0.19270
H2508       H  0.21228265  0.56790893  0.07388036     0.19270
C2509       C  0.13904900  0.56654509  0.21064874    -0.06560
C2510       C  0.12413934  0.55452449  0.18989973    -0.17690
C2511       C  0.13723137  0.53873815  0.17048129     0.10640
C2512       C  0.16608060  0.53670180  0.17049007    -0.06480
C2513       C  0.18056888  0.54784936  0.19192295    -0.17720
C2514       C  0.16730214  0.56102595  0.21259971     0.10670
S2515       S  0.11709656  0.52261225  0.14502490    -0.32690
S2516       S  0.18806519  0.57306814  0.23985859    -0.32690
H2517       H  0.16644710  0.57499638  0.25808398     0.28680
H2518       H  0.09147168  0.52858595  0.15592462     0.28670
H2519       H  0.10261559  0.55886769  0.18794584     0.19270
H2520       H  0.20246007  0.54562991  0.19312625     0.19270
C2521       C  0.15068459  0.45635686  0.22327361    -0.06560
C2522       C  0.13960784  0.44938241  0.19829340    -0.17690
C2523       C  0.14904044  0.46108869  0.17437496     0.10640
C2524       C  0.17072008  0.47972181  0.17514368    -0.06480
C2525       C  0.18226968  0.48576022  0.20013106    -0.17720
C2526       C  0.17150358  0.47585536  0.22393308     0.10670
S2527       S  0.13337374  0.45156734  0.14329160    -0.32690
S2528       S  0.18436205  0.49021947  0.25449142    -0.32690
H2529       H  0.15988585  0.48725209  0.26872136     0.28680
H2530       H  0.11288066  0.43525515  0.15402797     0.28670
H2531       H  0.12394065  0.43426543  0.19748979     0.19270
H2532       H  0.19948530  0.49914891  0.20123154     0.19270
C2533       C  0.20216437  0.47904312  0.13413675    -0.06560
C2534       C  0.22861552  0.47669086  0.14451366    -0.17690
C2535       C  0.24894746  0.46332394  0.13072380     0.10640
C2536       C  0.24194957  0.44770929  0.10823379    -0.06480
C2537       C  0.21614602  0.45134857  0.09658792    -0.17720
C2538       C  0.19671617  0.46813497  0.10846912     0.10670
S2539       S  0.28268433  0.46313449  0.14532516    -0.32690
S2540       S  0.16584080  0.47403519  0.08974083    -0.32690
H2541       H  0.15417159  0.49234039  0.10718760     0.28680
H2542       H  0.29598532  0.45444122  0.12215866     0.28670
H2543       H  0.23357756  0.48541105  0.16366060     0.19270
H2544       H  0.21056850  0.43998991  0.07905516     0.19270
C2545       C  0.15763976  0.18433584  0.52557593    -0.06560
C2546       C  0.17052867  0.20841860  0.53194029    -0.17690
C2547       C  0.15671561  0.22907705  0.54474514     0.10640
C2548       C  0.13022402  0.22498688  0.55520096    -0.06480
C2549       C  0.11690435  0.20111739  0.54842299    -0.17720
C2550       C  0.12995629  0.18127758  0.53301835     0.10670
S2551       S  0.17543201  0.25931409  0.55068683    -0.32690
S2552       S  0.11159738  0.15155768  0.52423599    -0.32690
H2553       H  0.08605654  0.15977107  0.53375871     0.28680
H2554       H  0.15222246  0.27514804  0.55443285     0.28670
H2555       H  0.19129962  0.21184264  0.52578170     0.19270
H2556       H  0.09703133  0.19718883  0.55687457     0.19270
C2557       C  0.19046305  0.14376038  0.52465057    -0.06560
C2558       C  0.17833531  0.11937073  0.53124378    -0.17690
C2559       C  0.19319075  0.09882869  0.54332104     0.10640
C2560       C  0.22081887  0.10268286  0.55058412    -0.06480
C2561       C  0.23320547  0.12684100  0.54380177    -0.17720
C2562       C  0.21863024  0.14716515  0.53077775     0.10670
S2563       S  0.17538104  0.06834722  0.55035069    -0.32690
S2564       S  0.23721197  0.17726098  0.52450885    -0.32690
H2565       H  0.22141791  0.18519336  0.50285355     0.28680
H2566       H  0.19883752  0.05239951  0.55153427     0.28670
H2567       H  0.15709783  0.11596930  0.52637134     0.19270
H2568       H  0.25401104  0.13056024  0.55022608     0.19270
C2569       C  0.19009466  0.14377633  0.46688491    -0.06560
C2570       C  0.18666725  0.11602907  0.46907693    -0.17690
C2571       C  0.20421783  0.09787897  0.45644028     0.10640
C2572       C  0.22632979  0.10715300  0.44105800    -0.06480
C2573       C  0.23023112  0.13477831  0.43944117    -0.17720
C2574       C  0.21233762  0.15297315  0.45132735     0.10670
S2575       S  0.19601742  0.06319382  0.45908118    -0.32690
S2576       S  0.21836740  0.18733879  0.44323568    -0.32690
H2577       H  0.20512878  0.19882136  0.46472300     0.28680
H2578       H  0.22280217  0.05406306  0.45587330     0.28670
H2579       H  0.16958492  0.10823264  0.48013593     0.19270
H2580       H  0.24629782  0.14236281  0.42673149     0.19270
C2581       C  0.11906861  0.21551338  0.43505589    -0.06560
C2582       C  0.11706779  0.18789082  0.43181199    -0.17690
C2583       C  0.13233110  0.17024038  0.44785452     0.10640
C2584       C  0.15154836  0.18012982  0.46669429    -0.06480
C2585       C  0.15225135  0.20776908  0.47046218    -0.17720
C2586       C  0.13522220  0.22504311  0.45635819     0.10670
S2587       S  0.12691992  0.13542135  0.44260588    -0.32690
S2588       S  0.13875074  0.25995402  0.46295304    -0.32690
H2589       H  0.11199335  0.26597743  0.45486251     0.28680
H2590       H  0.12797458  0.12925825  0.46994722     0.28670
H2591       H  0.10515133  0.18007833  0.41532451     0.19270
H2592       H  0.16732611  0.21658265  0.48330979     0.19270
loop_ 
_geom_bond_atom_site_label_1 
_geom_bond_atom_site_label_2 
_geom_bond_distance 
_geom_bond_site_symmetry_2 
_ccdc_geom_bond_type 
C1            C2   1.384       .  D
C1         C2545   1.522       .  S
C1         C2557   1.515       .  S
C2         C2569   1.527       .  S
C2         C2584   1.526       .  S
C3            C4   1.379       .  D
C3         C2524   1.518       .  S
C3         C2533   1.503       .  S
C4         C2497   1.517       .  S
C4         C2512   1.511       .  S
C5            C6   1.377       .  D
C5         C2473   1.509       .  S
C5         C2485   1.519       .  S
C6         C2449   1.506       .  S
C6         C2461   1.529       .  S
C7            C8   1.388       .  D
C7         C2425   1.518       .  S
C7         C2437   1.506       .  S
C8         C2401   1.532       .  S
C8         C2413   1.503       .  S
C9           C10   1.380       .  D
C9         C2377   1.518       .  S
C9         C2392   1.506       .  S
C10        C2353   1.504       .  S
C10        C2365   1.500       .  S
C11          C12   1.398       .  D
C11        C2329   1.535       .  S
C11        C2341   1.522       .  S
C12        C2305   1.529       .  S
C12        C2317   1.530       .  S
C13          C14   1.373       .  D
C13        C2257   1.528       .  S
C13        C2272   1.504       .  S
C14        C2284   1.519       .  S
C14        C2293   1.499       .  S
C15          C16   1.374       .  D
C15        C2209   1.506       .  S
C15        C2221   1.519       .  S
C16        C2236   1.508       .  S
C16        C2245   1.514       .  S
C17          C18   1.386       .  D
C17        C2185   1.515       .  S
C17        C2197   1.517       .  S
C18        C2161   1.530       .  S
C18        C2173   1.508       .  S
C19          C20   1.380       .  D
C19        C2137   1.522       .  S
C19        C2149   1.498       .  S
C20        C2113   1.535       .  S
C20        C2125   1.511       .  S
C21          C22   1.375       .  D
C21        C2089   1.518       .  S
C21        C2101   1.521       .  S
C22        C2065   1.502       .  S
C22        C2077   1.519       .  S
C23          C24   1.380       .  D
C23        C2041   1.515       .  S
C23        C2056   1.509       .  S
C24        C2017   1.528       .  S
C24        C2029   1.504       .  S
C25          C26   1.422       .  A
C25          C30   1.408       .  A
C25        C1993   1.496       .  S
C26          C27   1.418       .  A
C26          H31   1.083       .  S
C27          C28   1.396       .  A
C27        C2032   1.490       .  S
C28          C29   1.390       .  A
C28          H32   1.085       .  S
C29          C30   1.402       .  A
C29        C2005   1.484       .  S
C30          H33   1.084       .  S
C34          C35   1.406       .  A
C34          C39   1.430       .  A
C34        C2068   1.497       .  S
C35          C36   1.384       .  A
C35          H40   1.085       .  S
C36          C37   1.376       .  A
C36        C1981   1.458       .  S
C37          C38   1.396       .  A
C37          H41   1.086       .  S
C38          C39   1.427       .  A
C38        C1969   1.509       .  S
C39          H42   1.078       .  S
C43          C44   1.426       .  A
C43          C48   1.395       .  A
C43        C2080   1.488       .  S
C44          C45   1.427       .  A
C44          H49   1.082       .  S
C45          C46   1.395       .  A
C45        C1945   1.489       .  S
C46          C47   1.383       .  A
C46          H50   1.086       .  S
C47          C48   1.384       .  A
C47        C1957   1.452       .  S
C48          H51   1.086       .  S
C52          C53   1.434       .  A
C52          C57   1.398       .  A
C52        C1921   1.503       .  S
C53          C54   1.432       .  A
C53          H58   1.082       .  S
C54          C55   1.392       .  A
C54        C2308   1.495       .  S
C55          C56   1.380       .  A
C55          H59   1.087       .  S
C56          C57   1.385       .  A
C56        C1933   1.448       .  S
C57          H60   1.086       .  S
C61          C62   1.430       .  A
C61          C66   1.401       .  A
C61        C1900   1.502       .  S
C62          C63   1.426       .  A
C62          H67   1.082       .  S
C63          C64   1.402       .  A
C63        C2320   1.507       .  S
C64          C65   1.394       .  A
C64          H68   1.084       .  S
C65          C66   1.389       .  A
C65        C1909   1.479       .  S
C66          H69   1.083       .  S
C70          C71   1.428       .  A
C70          C75   1.397       .  A
C70        C1873   1.492       .  S
C71          C72   1.430       .  A
C71          H76   1.080       .  S
C72          C73   1.409       .  A
C72        C2020   1.520       .  S
C73          C74   1.389       .  A
C73          H77   1.085       .  S
C74          C75   1.386       .  A
C74        C1885   1.459       .  S
C75          H78   1.086       .  S
O79         Mg81   2.077       .  S
O79         Mg87   2.158       .  S
O79         C114   1.238       .  S
C80         H119   1.081       .  S
C80          O93   1.235       .  S
C80         O117   1.272       .  A
Mg81        O110   2.155       .  S
Mg81        O125   2.167       .  S
Mg81        O121   2.190       .  S
Mg81         O92   2.259       .  S
O82        Mg124   2.123       .  S
O82        Mg107   2.165       .  S
O82         C103   1.240       .  S
O83         C114   1.274       .  A
O83        Mg107   2.326       .  S
C84        C1936   1.440       .  S
C84          O86   1.264       .  A
C84          O98   1.275       .  A
O85         C113   1.264       .  A
O85         Mg87   2.274       .  S
O86        Mg118   2.169       .  S
Mg87         O93   2.139       .  S
Mg87        O101   2.259       .  S
Mg87         O89   2.218       .  S
C88        C1912   1.460       .  S
C88         O126   1.267       .  A
C88          O94   1.265       .  A
O89          C96   1.252       .  A
H90         C103   1.081       .  S
C91         H116   1.081       .  S
C91         O105   1.233       .  S
C91         O106   1.263       .  A
O92         C115   1.262       .  A
O93        Mg107   2.137       .  S
O94        Mg124   2.262       .  S
C95        C1888   1.452       .  S
C95         O108   1.262       .  A
C95         O100   1.271       .  A
C96        C2008   1.467       .  S
C96         O123   1.268       .  A
Mg97        O104   2.097       .  S
Mg97        O105   2.114       .  S
Mg97         O98   2.288       .  S
Mg97         O99   2.342       .  S
Mg97        O126   2.260       .  S
O99         C103   1.279       .  A
O100       Mg107   2.293       .  S
O101        C120   1.268       .  A
O102        C122   1.268       .  A
O102       Mg118   2.254       .  S
O104       Mg118   2.182       .  S
O104        C115   1.232       .  S
O105       Mg124   2.095       .  S
O106       Mg118   2.270       .  S
Mg107       O123   2.329       .  S
O108       Mg124   2.226       .  S
H109        C114   1.081       .  S
O110       Mg118   2.074       .  S
O110        C113   1.234       .  S
H111        C113   1.081       .  S
H112        C115   1.081       .  S
O117       Mg124   2.314       .  S
C120       C1984   1.438       .  S
C120        O125   1.257       .  A
O121        C122   1.263       .  A
C122       C1960   1.445       .  S
C127        C128   1.383   1_556  D
C127       C1972   1.501       .  S
C127       C1996   1.515       .  S
C128       C1849   1.505       .  S
C128       C1861   1.530       .  S
C129        C130   1.380       .  D
C129       C1876   1.525   1_545  S
C129       C1897   1.520   1_545  S
C130       C1825   1.502       .  S
C130       C1840   1.524       .  S
C131        C132   1.380       .  D
C131       C1924   1.523       .  S
C131       C1948   1.504       .  S
C132       C1801   1.521       .  S
C132       C1813   1.493       .  S
C133        C134   1.390       .  A
C133        C138   1.435       .  A
C133       C2104   1.498       .  S
C134        C135   1.379       .  A
C134        H139   1.087       .  S
C135        C136   1.391       .  A
C135       C1789   1.465       .  S
C136        C137   1.409       .  A
C136        H140   1.085       .  S
C137        C138   1.437       .  A
C137       C1777   1.518       .  S
C138        H141   1.082       .  S
C142        C143   1.400       .  A
C142        C147   1.431       .  A
C142       C2260   1.499       .  S
C143        C144   1.391       .  A
C143        H148   1.085       .  S
C144        C145   1.388       .  A
C144       C1765   1.466       .  S
C145        C146   1.397       .  A
C145        H149   1.086       .  S
C146        C147   1.430       .  A
C146       C1753   1.502       .  S
C147        H150   1.082       .  S
C151        C152   1.404       .  A
C151        C156   1.431       .  A
C151       C2092   1.498       .  S
C152        C153   1.396       .  A
C152        H157   1.085       .  S
C153        C154   1.388       .  A
C153       C1741   1.475       .  S
C154        C155   1.400       .  A
C154        H158   1.083       .  S
C155        C156   1.429       .  A
C155       C1729   1.502       .  S
C156        H159   1.082       .  S
C160        C161   1.403       .  A
C160        C165   1.416       .  A
C160       C2368   1.481       .  S
C161        C162   1.392       .  A
C161        H166   1.085       .  S
C162        C163   1.393       .  A
C162       C1717   1.478       .  S
C163        C164   1.399       .  A
C163        H167   1.084       .  S
C164        C165   1.414       .  A
C164       C1705   1.484       .  S
C165        H168   1.083       .  S
C169        C170   1.423       .  A
C169        C174   1.405       .  A
C169       C2356   1.496       .  S
C170        C171   1.418       .  A
C170        H175   1.081       .  S
C171        C172   1.397       .  A
C171       C1828   1.485       .  S
C172        C173   1.383       .  A
C172        H176   1.087       .  S
C173        C174   1.389       .  A
C173       C1693   1.466       .  S
C174        H177   1.085       .  S
C178        C179   1.418       .  A
C178        C183   1.393       .  A
C178       C2269   1.482       .  S
C179        C180   1.421       .  A
C179        H184   1.082       .  S
C180        C181   1.403       .  A
C180       C1837   1.492       .  S
C181        C182   1.393       .  A
C181        H185   1.085       .  S
C182        C183   1.387       .  A
C182       C1681   1.468       .  S
C183        H186   1.086       .  S
O187       Mg189   2.093       .  S
O187       Mg195   2.121       .  S
O187        C222   1.237       .  S
C188        H227   1.081       .  S
C188        O201   1.237       .  S
C188        O225   1.272       .  A
Mg189       O218   2.145       .  S
Mg189       O233   2.270       .  S
Mg189       O229   2.221       .  S
Mg189       O200   2.314       .  S
O190       Mg232   2.131       .  S
O190       Mg215   2.114       .  S
O190        C211   1.236       .  S
O191        C222   1.268       .  A
O191       Mg215   2.287       .  S
C192       C1720   1.478       .  S
C192        O194   1.264       .  A
C192        O206   1.263       .  A
O193        C221   1.276       .  A
O193       Mg195   2.320       .  S
O194       Mg226   2.289       .  S
Mg195       O201   2.089       .  S
Mg195       O209   2.227       .  S
Mg195       O197   2.256       .  S
C196       C1744   1.451       .  S
C196        O234   1.266       .  A
C196        O202   1.262       .  A
O197        C204   1.269       .  A
H198        C211   1.080       .  S
C199        H224   1.081       .  S
C199        O213   1.239       .  S
C199        O214   1.277       .  A
O200        C223   1.272       .  A
O201       Mg215   2.146       .  S
O202       Mg232   2.235       .  S
C203       C1792   1.456       .  S
C203        O216   1.262       .  A
C203        O208   1.257       .  A
C204       C1768   1.461       .  S
C204        O231   1.267       .  A
Mg205       O212   2.136       .  S
Mg205       O213   2.137       .  S
Mg205       O206   2.217       .  S
Mg205       O207   2.294       .  S
Mg205       O234   2.271       .  S
O207        C211   1.268       .  A
O208       Mg215   2.228       .  S
O209        C228   1.263       .  A
O210        C230   1.269       .  A
O210       Mg226   2.264       .  S
O212       Mg226   2.156       .  S
O212        C223   1.237       .  S
O213       Mg232   2.135       .  S
O214       Mg226   2.336       .  S
Mg215       O231   2.232       .  S
O216       Mg232   2.275       .  S
H217        C222   1.081       .  S
O218       Mg226   2.131       .  S
O218        C221   1.239       .  S
H219        C221   1.081       .  S
H220        C223   1.081       .  S
O225       Mg232   2.311       .  S
C228       C1684   1.455       .  S
C228        O233   1.265       .  A
O229        C230   1.263       .  A
C230       C1696   1.461       .  S
C235        C236   1.418       .  A
C235        C240   1.395       .  A
C235       C1657   1.494       .  S
C236        C237   1.425       .  A
C236        H241   1.082       .  S
C237        C238   1.406       .  A
C237       C2044   1.491       .  S
C238        C239   1.399       .  A
C238        H242   1.082       .  S
C239        C240   1.390       .  A
C239       C1669   1.491       .  S
C240        H243   1.082       .  S
C244        C245   1.419       .  A
C244        C249   1.407       .  A
C244       C1633   1.511       .  S
C245        C246   1.419       .  A
C245        H250   1.083       .  S
C246        C247   1.401       .  A
C246       C2224   1.497       .  S
C247        C248   1.404       .  A
C247        H251   1.080       .  S
C248        C249   1.407       .  A
C248       C1645   1.509       .  S
C249        H252   1.073       .  S
C253        C254   1.401       .  A
C253        C258   1.419       .  A
C253       C1609   1.493       .  S
C254        C255   1.385       .  A
C254        H259   1.085       .  S
C255        C256   1.393       .  A
C255       C1621   1.472       .  S
C256        C257   1.404       .  A
C256        H260   1.084       .  S
C257        C258   1.421       .  A
C257       C2053   1.493       .  S
C258        H261   1.081       .  S
C262        C263   1.410       .  A
C262        C267   1.419       .  A
C262       C2404   1.502       .  S
C263        C264   1.391       .  A
C263        H268   1.085       .  S
C264        C265   1.394       .  A
C264       C1597   1.473       .  S
C265        C266   1.403       .  A
C265        H269   1.085       .  S
C266        C267   1.418       .  A
C266       C1585   1.488       .  S
C267        H270   1.082       .  S
C271        C272   1.418       .  A
C271        C276   1.409       .  A
C271       C1804   1.496       .  S
C272        C273   1.419       .  A
C272        H277   1.082       .  S
C273        C274   1.396       .  A
C273       C2212   1.485       .  S
C274        C275   1.385       .  A
C274        H278   1.087       .  S
C275        C276   1.390       .  A
C275       C1573   1.467       .  S
C276        H279   1.083       .  S
C280        C281   1.404       .  A
C280        C285   1.404       .  A
C280       C2416   1.482       .  S
C281        C282   1.406       .  A
C281        H286   1.083       .  S
C282        C283   1.404       .  A
C282       C1816   1.466       .  S
C283        C284   1.394       .  A
C283        H287   1.085       .  S
C284        C285   1.397       .  A
C284       C1561   1.484       .  S
C285        H288   1.084       .  S
O289       Mg291   2.132       .  S
O289       Mg297   2.148       .  S
O289        C324   1.237       .  S
C290        H329   1.081       .  S
C290        O303   1.238       .  S
C290        O327   1.272       .  A
Mg291       O320   2.163       .  S
Mg291       O335   2.244       .  S
Mg291       O331   2.263       .  S
Mg291       O302   2.305       .  S
O292       Mg334   2.141       .  S
O292       Mg317   2.098       .  S
O292        C313   1.237       .  S
O293        C324   1.270       .  A
O293       Mg317   2.296       .  S
C294       C1576   1.466       .  S
C294        O296   1.264       .  A
C294        O308   1.260       .  A
O295        C323   1.270       .  A
O295       Mg297   2.309       .  S
O296       Mg328   2.286       .  S
Mg297       O303   2.127       .  S
Mg297       O311   2.252       .  S
Mg297       O299   2.285       .  S
C298       C1564   1.482       .  S
C298        O336   1.273       .  A
C298        O304   1.265       .  A
O299        C306   1.269       .  A
H300        C313   1.081       .  S
C301        H326   1.081       .  S
C301        O315   1.239       .  S
C301        O316   1.274       .  A
O302        C325   1.272       .  A
O303       Mg317   2.130       .  S
O304       Mg334   2.238       .  S
C305       C1600   1.467       .  S
C305        O318   1.268       .  A
C305        O310   1.270       .  A
C306       C1624   1.481       .  S
C306        O333   1.267       .  A
Mg307       O314   2.159       .  S
Mg307       O315   2.159       .  S
Mg307       O308   2.224       .  S
Mg307       O309   2.289       .  S
Mg307       O336   2.291       .  S
O309        C313   1.270       .  A
O310       Mg317   2.286       .  S
O311        C330   1.266       .  A
O312        C332   1.274       .  A
O312       Mg328   2.290       .  S
O314       Mg328   2.163       .  S
O314        C325   1.238       .  S
O315       Mg334   2.109       .  S
O316       Mg328   2.323       .  S
Mg317       O333   2.203       .  S
O318       Mg334   2.266       .  S
H319        C324   1.081       .  S
O320       Mg328   2.118       .  S
O320        C323   1.235       .  S
H321        C323   1.081       .  S
H322        C325   1.081       .  S
O327       Mg334   2.306       .  S
C330       C1672   1.474       .  S
C330        O335   1.266       .  A
O331        C332   1.268       .  A
C332       C1648   1.472       .  S
C337        C338   1.389       .  D
C337       C1537   1.526       .  S
C337       C1552   1.530       .  S
C338       C1588   1.512   1_545  S
C338       C1612   1.521   1_545  S
C339        C340   1.401       .  A
C339        C344   1.423       .  A
C339       C2296   1.487       .  S
C340        C341   1.384       .  A
C340        H345   1.085       .  S
C341        C342   1.385       .  A
C341       C1525   1.458       .  S
C342        C343   1.398       .  A
C342        H346   1.086       .  S
C343        C344   1.421       .  A
C343       C1513   1.491       .  S
C344        H347   1.080       .  S
C348        C349   1.420       .  A
C348        C353   1.403       .  A
C348       C1489   1.484       .  S
C349        C350   1.416       .  A
C349        H354   1.083       .  S
C350        C351   1.391       .  A
C350       C2233   1.479       .  S
C351        C352   1.383       .  A
C351        H355   1.087       .  S
C352        C353   1.396       .  A
C352       C1501   1.466       .  S
C353        H356   1.085       .  S
C357        C358   1.428       .  A
C357        C362   1.406       .  A
C357       C1549   1.512       .  S
C358        C359   1.429       .  A
C358        H363   1.080       .  S
C359        C360   1.399       .  A
C359       C2560   1.492       .  S
C360        C361   1.386       .  A
C360        H364   1.086       .  S
C361        C362   1.384       .  A
C361       C1477   1.457       .  S
C362        H365   1.086       .  S
C366        C367   1.425       .  A
C366        C371   1.400       .  A
C366       C2281   1.506       .  S
C367        C368   1.425       .  A
C367        H372   1.081       .  S
C368        C369   1.408       .  A
C368       C1540   1.512       .  S
C369        C370   1.399       .  A
C369        H373   1.079       .  S
C370        C371   1.391       .  A
C370       C1468   1.488       .  S
C371        H374   1.084       .  S
C375        C376   1.388       .  A
C375        C380   1.435       .  A
C375       C2548   1.503       .  S
C376        C377   1.380       .  A
C376        H381   1.086       .  S
C377        C378   1.396       .  A
C377       C1453   1.491       .  S
C378        C379   1.429       .  A
C378        H382   1.077       .  S
C379        C380   1.446       .  A
C379       C1441   1.555       .  S
C380        H383   1.077       .  S
C384        C385   1.426       .  A
C384        C389   1.393       .  A
C384       C1417   1.492       .  S
C385        C386   1.432       .  A
C385        H390   1.081       .  S
C386        C387   1.409       .  A
C386       C2248   1.511       .  S
C387        C388   1.389       .  A
C387        H391   1.084       .  S
C388        C389   1.379       .  A
C388       C1432   1.464       .  S
C389        H392   1.084       .  S
O393       Mg395   2.147       .  S
O393       Mg401   2.169       .  S
O393        C428   1.236       .  S
C394        H433   1.081       .  S
C394        O407   1.236       .  S
C394        O431   1.271       .  A
Mg395       O424   2.147       .  S
Mg395       O439   2.224       .  S
Mg395       O435   2.259       .  S
Mg395       O406   2.294       .  S
O396       Mg438   2.126       .  S
O396       Mg421   2.094       .  S
O396        C417   1.241       .  S
O397        C428   1.269       .  A
O397       Mg421   2.295       .  S
C398       C1504   1.444       .  S
C398        O400   1.264       .  A
C398        O412   1.253       .  A
O399        C427   1.273       .  A
O399       Mg401   2.314       .  S
O400       Mg432   2.289       .  S
Mg401       O407   2.141       .  S
Mg401       O415   2.309       .  S
Mg401       O403   2.221       .  S
C402       C1528   1.462       .  S
C402        O440   1.259       .  A
C402        O408   1.259       .  A
O403        C410   1.266       .  A
H404        C417   1.081       .  S
C405        H430   1.081       .  S
C405        O419   1.241       .  S
C405        O420   1.276       .  A
O406        C429   1.268       .  A
O407       Mg421   2.188       .  S
O408       Mg438   2.224       .  S
C409       C1465   1.466       .  S
C409        O422   1.267       .  A
C409        O414   1.271       .  A
C410       C1480   1.451       .  S
C410        O437   1.264       .  A
Mg411       O418   2.111       .  S
Mg411       O419   2.160       .  S
Mg411       O412   2.233       .  S
Mg411       O413   2.313       .  S
Mg411       O440   2.274       .  S
O413        C417   1.276       .  A
O414       Mg421   2.281       .  S
O415        C434   1.263       .  A
O416        C436   1.268       .  A
O416       Mg432   2.239       .  S
O418       Mg432   2.148       .  S
O418        C429   1.235       .  S
O419       Mg438   2.119       .  S
O420       Mg432   2.326       .  S
Mg421       O437   2.222       .  S
O422       Mg438   2.248       .  S
H423        C428   1.081       .  S
O424       Mg432   2.104       .  S
O424        C427   1.237       .  S
H425        C427   1.081       .  S
H426        C429   1.081       .  S
O431       Mg438   2.312       .  S
C434       C1456   1.494       .  S
C434        O439   1.263       .  A
O435        C436   1.269       .  A
C436       C1429   1.452       .  S
C441        C442   1.400       .  D
C441       C1420   1.515       .  S
C441       C1444   1.564       .  S
C442       C1708   1.505   1_455  S
C442       C1732   1.544   1_455  S
C443        C444   1.373   1_556  D
C443       C1492   1.511       .  S
C443       C1516   1.502       .  S
C444       C1396   1.517       .  S
C444       C1405   1.510       .  S
C445        C446   1.388   1_565  D
C445       C1345   1.522       .  S
C445       C1357   1.506       .  S
C446       C1369   1.526       .  S
C446       C1381   1.515       .  S
C447        C448   1.425       .  A
C447        C452   1.409       .  A
C447       C1408   1.501       .  S
C448        C449   1.419       .  A
C448        H453   1.082       .  S
C449        C450   1.394       .  A
C449       C2536   1.487       .  S
C450        C451   1.383       .  A
C450        H454   1.086       .  S
C451        C452   1.398       .  A
C451       C1333   1.472       .  S
C452        H455   1.085       .  S
C456        C457   1.430       .  A
C456        C461   1.413       .  A
C456       C2476   1.508       .  S
C457        C458   1.421       .  A
C457        H462   1.081       .  S
C458        C459   1.387       .  A
C458       C1393   1.482       .  S
C459        C460   1.373       .  A
C459        H463   1.084       .  S
C460        C461   1.389       .  A
C460       C1321   1.457       .  S
C461        H464   1.084       .  S
C465        C466   1.426       .  A
C465        C470   1.392       .  A
C465       C2488   1.495       .  S
C466        C467   1.433       .  A
C466        H471   1.082       .  S
C467        C468   1.412       .  A
C467       C1384   1.521       .  S
C468        C469   1.398       .  A
C468        H472   1.083       .  S
C469        C470   1.381       .  A
C469       C1312   1.473       .  S
C470        H473   1.086       .  S
C474        C475   1.431       .  A
C474        C479   1.401       .  A
C474       C1372   1.502       .  S
C475        C476   1.433       .  A
C475        H480   1.082       .  S
C476        C477   1.400       .  A
C476       C2572   1.505       .  S
C477        C478   1.388       .  A
C477        H481   1.086       .  S
C478        C479   1.388       .  A
C478       C1300   1.462       .  S
C479        H482   1.086       .  S
C483        C484   1.390       .  A
C483        C488   1.418       .  A
C483       C2581   1.489       .  S
C484        C485   1.391       .  A
C484        H489   1.086       .  S
C485        C486   1.398       .  A
C485       C1285   1.482       .  S
C486        C487   1.407       .  A
C486        H490   1.084       .  S
C487        C488   1.424       .  A
C487       C1273   1.491       .  S
C488        H491   1.083       .  S
C492        C493   1.416       .  A
C492        C497   1.392       .  A
C492       C1252   1.482       .  S
C493        C494   1.422       .  A
C493        H498   1.083       .  S
C494        C495   1.411       .  A
C494       C2521   1.502       .  S
C495        C496   1.399       .  A
C495        H499   1.084       .  S
C496        C497   1.385       .  A
C496       C1261   1.473       .  S
C497        H500   1.086       .  S
O501       Mg503   2.119       .  S
O501       Mg509   2.126       .  S
O501        C536   1.241       .  S
C502        H541   1.081       .  S
C502        O515   1.237       .  S
C502        O539   1.272       .  A
Mg503       O532   2.130       .  S
Mg503       O547   2.224       .  S
Mg503       O543   2.237       .  S
Mg503       O514   2.295       .  S
O504       Mg546   2.138       .  S
O504       Mg529   2.110       .  S
O504        C525   1.238       .  S
O505        C536   1.279       .  A
O505       Mg529   2.347       .  S
C506       C1297   1.457       .  S
C506        O508   1.264       .  A
C506        O520   1.272       .  A
O507        C535   1.277       .  A
O507       Mg509   2.326       .  S
O508       Mg540   2.219       .  S
Mg509       O515   2.128       .  S
Mg509       O523   2.276       .  S
Mg509       O511   2.232       .  S
C510       C1288   1.485       .  S
C510        O548   1.263       .  A
C510        O516   1.265       .  A
O511        C518   1.247       .  A
H512        C525   1.081       .  S
C513        H538   1.081       .  S
C513        O527   1.236       .  S
C513        O528   1.267       .  A
O514        C537   1.267       .  A
O515       Mg529   2.150       .  S
O516       Mg546   2.242       .  S
C517       C1264   1.460       .  S
C517        O530   1.272       .  A
C517        O522   1.270       .  A
C518       C1336   1.451       .  S
C518        O545   1.264       .  A
Mg519       O526   2.116       .  S
Mg519       O527   2.179       .  S
Mg519       O520   2.253       .  S
Mg519       O521   2.311       .  S
Mg519       O548   2.297       .  S
O521        C525   1.273       .  A
O522       Mg529   2.258       .  S
O523        C542   1.261       .  A
O524        C544   1.269       .  A
O524       Mg540   2.260       .  S
O526       Mg540   2.192       .  S
O526        C537   1.235       .  S
O527       Mg546   2.150       .  S
O528       Mg540   2.282       .  S
Mg529       O545   2.328       .  S
O530       Mg546   2.265       .  S
H531        C536   1.081       .  S
O532       Mg540   2.089       .  S
O532        C535   1.241       .  S
H533        C535   1.081       .  S
H534        C537   1.081       .  S
O539       Mg546   2.309       .  S
C542       C1324   1.468       .  S
C542        O547   1.254       .  A
O543        C544   1.266       .  A
C544       C1309   1.457       .  S
C549        C550   1.373       .  D
C549       C1228   1.500   1_455  S
C549       C1240   1.513   1_455  S
C550       C1249   1.502       .  S
C550       C1276   1.510       .  S
C551        C552   1.396       .  D
C551       C1201   1.521       .  S
C551       C1780   1.525   1_554  S
C552       C1213   1.525       .  S
C552       C1756   1.512   1_554  S
C553        C554   1.421       .  A
C553        C558   1.397       .  A
C553       C2152   1.480       .  S
C554        C555   1.421       .  A
C554        H559   1.082       .  S
C555        C556   1.397       .  A
C555       C1237   1.489       .  S
C556        C557   1.387       .  A
C556        H560   1.087       .  S
C557        C558   1.384       .  A
C557       C1189   1.455       .  S
C558        H561   1.086       .  S
C562        C563   1.412       .  A
C562        C567   1.408       .  A
C562       C2380   1.489       .  S
C563        C564   1.414       .  A
C563        H568   1.083       .  S
C564        C565   1.404       .  A
C564       C1225   1.479       .  S
C565        C566   1.397       .  A
C565        H569   1.078       .  S
C566        C567   1.402       .  A
C566       C1180   1.516       .  S
C567        H570   1.082       .  S
C571        C572   1.431       .  A
C571        C576   1.409       .  A
C571       C2464   1.508       .  S
C572        C573   1.427       .  A
C572        H577   1.082       .  S
C573        C574   1.388       .  A
C573       C1216   1.494       .  S
C574        C575   1.384       .  A
C574        H578   1.087       .  S
C575        C576   1.402       .  A
C575       C1165   1.473       .  S
C576        H579   1.083       .  S
C580        C581   1.427       .  A
C580        C585   1.392       .  A
C580       C2140   1.499       .  S
C581        C582   1.439       .  A
C581        H586   1.080       .  S
C582        C583   1.415       .  A
C582       C1204   1.542       .  S
C583        C584   1.403       .  A
C583        H587   1.076       .  S
C584        C585   1.389       .  A
C584       C1153   1.485       .  S
C585        H588   1.085       .  S
C589        C590   1.390       .  A
C589        C594   1.427       .  A
C589       C2452   1.487       .  S
C590        C591   1.376       .  A
C590        H595   1.087       .  S
C591        C592   1.390       .  A
C591       C1144   1.456       .  S
C592        C593   1.412       .  A
C592        H596   1.083       .  S
C593        C594   1.433       .  A
C593       C1129   1.529       .  S
C594        H597   1.077       .  S
C598        C599   1.401       .  A
C598        C603   1.406       .  A
C598       C2389   1.471       .  S
C599        C600   1.395       .  A
C599        H604   1.085       .  S
C600        C601   1.390       .  A
C600       C1120   1.475       .  S
C601        C602   1.401       .  A
C601        H605   1.084       .  S
C602        C603   1.409       .  A
C602       C1108   1.474       .  S
C603        H606   1.083       .  S
O607       Mg609   2.184       .  S
O607       Mg615   2.143       .  S
O607        C642   1.239       .  S
C608        H647   1.081       .  S
C608        O621   1.231       .  S
C608        O645   1.266       .  A
Mg609       O638   2.149       .  S
Mg609       O653   2.252       .  S
Mg609       O649   2.319       .  S
Mg609       O620   2.306       .  S
O610       Mg652   2.168       .  S
O610       Mg635   2.128       .  S
O610        C631   1.238       .  S
O611        C642   1.279       .  A
O611       Mg635   2.348       .  S
C612       C1168   1.458       .  S
C612        O614   1.269       .  A
C612        O626   1.263       .  A
O613        C641   1.270       .  A
O613       Mg615   2.309       .  S
O614       Mg646   2.266       .  S
Mg615       O621   2.121       .  S
Mg615       O629   2.208       .  S
Mg615       O617   2.226       .  S
C616       C1141   1.441       .  S
C616        O654   1.261       .  A
C616        O622   1.267       .  A
O617        C624   1.264       .  A
H618        C631   1.081       .  S
C619        H644   1.081       .  S
C619        O633   1.237       .  S
C619        O634   1.269       .  A
O620        C643   1.272       .  A
O621       Mg635   2.134       .  S
O622       Mg652   2.239       .  S
C623       C1117   1.461       .  S
C623        O636   1.267       .  A
C623        O628   1.272       .  A
C624       C1177   1.492       .  S
C624        O651   1.262       .  A
Mg625       O632   2.078       .  S
Mg625       O633   2.170       .  S
Mg625       O626   2.215       .  S
Mg625       O627   2.291       .  S
Mg625       O654   2.203       .  S
O627        C631   1.271       .  A
O628       Mg635   2.302       .  S
O629        C648   1.258       .  A
O630        C650   1.259       .  A
O630       Mg646   2.233       .  S
O632       Mg646   2.142       .  S
O632        C643   1.238       .  S
O633       Mg652   2.104       .  S
O634       Mg646   2.289       .  S
Mg635       O651   2.278       .  S
O636       Mg652   2.224       .  S
H637        C642   1.081       .  S
O638       Mg646   2.116       .  S
O638        C641   1.236       .  S
H639        C641   1.081       .  S
H640        C643   1.081       .  S
O645       Mg652   2.300       .  S
C648       C1192   1.450       .  S
C648        O653   1.265       .  A
O649        C650   1.269       .  A
C650       C1156   1.474       .  S
C655        C656   1.379   1_545  D
C655       C1105   1.494       .  S
C655       C1132   1.513       .  S
C656       C1081   1.532       .  S
C656       C1096   1.515       .  S
C657        C658   1.434       .  A
C657        C662   1.400       .  A
C657       C1084   1.505       .  S
C658        C659   1.430       .  A
C658        H663   1.082       .  S
C659        C660   1.394       .  A
C659       C2332   1.510       .  S
C660        C661   1.394       .  A
C660        H664   1.083       .  S
C661        C662   1.397       .  A
C661       C1069   1.480       .  S
C662        H665   1.085       .  S
C666        C667   1.429       .  A
C666        C671   1.397       .  A
C666       C1093   1.483       .  S
C667        C668   1.427       .  A
C667        H672   1.082       .  S
C668        C669   1.396       .  A
C668       C2176   1.500       .  S
C669        C670   1.387       .  A
C669        H673   1.084       .  S
C670        C671   1.377       .  A
C670       C1057   1.469       .  S
C671        H674   1.086       .  S
C675        C676   1.427       .  A
C675        C680   1.405       .  A
C675       C1033   1.512       .  S
C676        C677   1.428       .  A
C676        H681   1.082       .  S
C677        C678   1.393       .  A
C677       C2344   1.497       .  S
C678        C679   1.395       .  A
C678        H682   1.081       .  S
C679        C680   1.401       .  A
C679       C1045   1.493       .  S
C680        H683   1.081       .  S
C684        C685   1.404       .  A
C684        C689   1.443       .  A
C684       C2116   1.512       .  S
C685        C686   1.386       .  A
C685        H690   1.085       .  S
C686        C687   1.385       .  A
C686       C1021   1.471       .  S
C687        C688   1.404       .  A
C687        H691   1.085       .  S
C688        C689   1.441       .  A
C688       C1009   1.523       .  S
C689        H692   1.082       .  S
C693        C694   1.424       .  A
C693        C698   1.403       .  A
C693       C1852   1.495       .  S
C694        C695   1.422       .  A
C694        H699   1.083       .  S
C695        C696   1.399       .  A
C695       C2164   1.500       .  S
C696        C697   1.392       .  A
C696        H700   1.083       .  S
C697        C698   1.396       .  A
C697        C997   1.483       .  S
C698        H701   1.084       .  S
C702        C703   1.427       .  A
C702        C707   1.400       .  A
C702       C2128   1.490       .  S
C703        C704   1.422       .  A
C703        H708   1.082       .  S
C704        C705   1.396       .  A
C704       C1864   1.495       .  S
C705        C706   1.375       .  A
C705        H709   1.084       .  S
C706        C707   1.390       .  A
C706        C988   1.464       .  S
C707        H710   1.084       .  S
O711       Mg713   2.102       .  S
O711       Mg719   2.110       .  S
O711        C746   1.233       .  S
C712        H751   1.081       .  S
C712        O725   1.237       .  S
C712        O749   1.270       .  A
Mg713       O742   2.113       .  S
Mg713       O757   2.240       .  S
Mg713       O753   2.235       .  S
Mg713       O724   2.291       .  S
O714       Mg756   2.127       .  S
O714       Mg739   2.109       .  S
O714        C735   1.234       .  S
O715        C746   1.264       .  A
O715       Mg739   2.272       .  S
C716       C1000   1.469       .  S
C716        O718   1.265       .  A
C716        O730   1.270       .  A
O717        C745   1.273       .  A
O717       Mg719   2.323       .  S
O718       Mg750   2.220       .  S
Mg719       O725   2.123       .  S
Mg719       O733   2.298       .  S
Mg719       O721   2.335       .  S
C720        C985   1.456       .  S
C720        O758   1.266       .  A
C720        O726   1.261       .  A
O721        C728   1.281       .  A
H722        C735   1.081       .  S
C723        H748   1.081       .  S
C723        O737   1.239       .  S
C723        O738   1.273       .  A
O724        C747   1.273       .  A
O725       Mg739   2.175       .  S
O726       Mg756   2.220       .  S
C727       C1024   1.447       .  S
C727        O740   1.260       .  A
C727        O732   1.266       .  A
C728       C1048   1.458       .  S
C728        O755   1.264       .  A
Mg729       O736   2.078       .  S
Mg729       O737   2.131       .  S
Mg729       O730   2.304       .  S
Mg729       O731   2.308       .  S
Mg729       O758   2.204       .  S
O731        C735   1.269       .  A
O732       Mg739   2.272       .  S
O733        C752   1.275       .  A
O734        C754   1.259       .  A
O734       Mg750   2.246       .  S
O736       Mg750   2.133       .  S
O736        C747   1.241       .  S
O737       Mg756   2.115       .  S
O738       Mg750   2.305       .  S
Mg739       O755   2.169       .  S
O740       Mg756   2.213       .  S
H741        C746   1.081       .  S
O742       Mg750   2.123       .  S
O742        C745   1.237       .  S
H743        C745   1.081       .  S
H744        C747   1.081       .  S
O749       Mg756   2.297       .  S
C752       C1072   1.449       .  S
C752        O757   1.259       .  A
O753        C754   1.262       .  A
C754       C1060   1.473       .  S
C759        C760   1.393       .  D
C759       C1012   1.535       .  S
C759       C1036   1.546       .  S
C760        C961   1.509       .  S
C760        C976   1.519       .  S
C761        C762   1.417       .  A
C761        C766   1.398       .  A
C761       C2440   1.484       .  S
C762        C763   1.417       .  A
C762        H767   1.083       .  S
C763        C764   1.407       .  A
C763       C1360   1.494       .  S
C764        C765   1.395       .  A
C764        H768   1.085       .  S
C765        C766   1.392       .  A
C765        C949   1.468       .  S
C766        H769   1.086       .  S
C770        C771   1.399       .  A
C770        C775   1.422       .  A
C770       C1348   1.489       .  S
C771        C772   1.384       .  A
C771        H776   1.086       .  S
C772        C773   1.384       .  A
C772        C937   1.454       .  S
C773        C774   1.397       .  A
C773        H777   1.086       .  S
C774        C775   1.425       .  A
C774       C2188   1.487       .  S
C775        H778   1.082       .  S
C779        C780   1.422       .  A
C779        C784   1.390       .  A
C779        C913   1.489       .  S
C780        C781   1.428       .  A
C780        H785   1.082       .  S
C781        C782   1.404       .  A
C781       C2500   1.494       .  S
C782        C783   1.395       .  A
C782        H786   1.084       .  S
C783        C784   1.385       .  A
C783        C928   1.471       .  S
C784        H787   1.086       .  S
C788        C789   1.426       .  A
C788        C793   1.406       .  A
C788        C973   1.489       .  S
C789        C790   1.420       .  A
C789        H794   1.082       .  S
C790        C791   1.391       .  A
C790       C2509   1.493       .  S
C791        C792   1.389       .  A
C791        H795   1.086       .  S
C792        C793   1.393       .  A
C792        C904   1.471       .  S
C793        H796   1.084       .  S
C797        C798   1.409       .  A
C797        C802   1.427       .  A
C797       C2428   1.528       .  S
C798        C799   1.395       .  A
C798        H803   1.079       .  S
C799        C800   1.390       .  A
C799        C889   1.490       .  S
C800        C801   1.404       .  A
C800        H804   1.083       .  S
C801        C802   1.425       .  A
C801        C964   1.494       .  S
C802        H805   1.079       .  S
C806        C807   1.423       .  A
C806        C811   1.418       .  A
C806        C865   1.522       .  S
C807        C808   1.415       .  A
C807        H812   1.080       .  S
C808        C809   1.392       .  A
C808       C2200   1.490       .  S
C809        C810   1.402       .  A
C809        H813   1.077       .  S
C810        C811   1.413       .  A
C810        C877   1.513       .  S
C811        H814   1.079       .  S
O815       Mg817   2.101       .  S
O815       Mg823   2.163       .  S
O815        C850   1.240       .  S
C816        H855   1.081       .  S
C816        O829   1.240       .  S
C816        O853   1.278       .  A
Mg817       O846   2.173       .  S
Mg817       O861   2.234       .  S
Mg817       O857   2.254       .  S
Mg817       O828   2.273       .  S
O818       Mg860   2.172       .  S
O818       Mg843   2.151       .  S
O818        C839   1.240       .  S
O819        C850   1.275       .  A
O819       Mg843   2.315       .  S
C820        C940   1.452       .  S
C820        O822   1.266       .  A
C820        O834   1.268       .  A
O821        C849   1.266       .  A
O821       Mg823   2.285       .  S
O822       Mg854   2.248       .  S
Mg823       O829   2.147       .  S
Mg823       O837   2.286       .  S
Mg823       O825   2.216       .  S
C824        C880   1.487       .  S
C824        O862   1.274       .  A
C824        O830   1.269       .  A
O825        C832   1.263       .  A
H826        C839   1.079       .  S
C827        H852   1.081       .  S
C827        O841   1.237       .  S
C827        O842   1.270       .  A
O828        C851   1.268       .  A
O829       Mg843   2.167       .  S
O830       Mg860   2.255       .  S
C831        C925   1.451       .  S
C831        O844   1.259       .  A
C831        O836   1.256       .  A
C832        C901   1.485       .  S
C832        O859   1.261       .  A
Mg833       O840   2.129       .  S
Mg833       O841   2.145       .  S
Mg833       O834   2.263       .  S
Mg833       O835   2.303       .  S
Mg833       O862   2.297       .  S
O835        C839   1.272       .  A
O836       Mg843   2.245       .  S
O837        C856   1.272       .  A
O838        C858   1.271       .  A
O838       Mg854   2.267       .  S
O840       Mg854   2.163       .  S
O840        C851   1.239       .  S
O841       Mg860   2.091       .  S
O842       Mg854   2.293       .  S
Mg843       O859   2.287       .  S
O844       Mg860   2.277       .  S
H845        C850   1.081       .  S
O846       Mg854   2.113       .  S
O846        C849   1.234       .  S
H847        C849   1.081       .  S
H848        C851   1.081       .  S
O853       Mg860   2.341       .  S
C856        C892   1.482       .  S
C856        O861   1.265       .  A
O857        C858   1.269       .  A
C858        C952   1.463       .  S
C863        C864   1.400   1_554  D
C863        C868   1.522       .  S
C863       C1660   1.540   1_554  S
C864        C916   1.533   1_556  S
C864       C1636   1.522       .  S
C865        C866   1.415       .  A
C865        C870   1.420       .  A
C866        C867   1.407       .  A
C866        H875   1.084       .  S
C867        C868   1.420       .  A
C867        S871   1.800       .  S
C868        C869   1.416       .  A
C869        C870   1.412       .  A
C869        H876   1.084       .  S
C870        S872   1.800       .  S
S871        H874   1.406       .  S
S872        H873   1.406       .  S
C877        C878   1.410       .  A
C877        C882   1.423       .  A
C878        C879   1.400       .  A
C878        H887   1.077       .  S
C879        C880   1.413       .  A
C879        S883   1.808       .  S
C880        C881   1.402       .  A
C881        C882   1.402       .  A
C881        H888   1.083       .  S
C882        S884   1.805       .  S
S883        H886   1.407       .  S
S884        H885   1.408       .  S
C889        C890   1.402       .  A
C889        C894   1.415       .  A
C890        C891   1.382       .  A
C890        H899   1.082       .  S
C891        C892   1.421       .  A
C891        S895   1.814       .  S
C892        C893   1.409       .  A
C893        C894   1.406       .  A
C893        H900   1.084       .  S
C894        S896   1.803       .  S
S895        H898   1.408       .  S
S896        H897   1.407       .  S
C901        C902   1.406       .  A
C901        C906   1.420       .  A
C902        C903   1.393       .  A
C902        H911   1.082       .  S
C903        C904   1.411       .  A
C903        S907   1.804       .  S
C904        C905   1.400       .  A
C905        C906   1.398       .  A
C905        H912   1.083       .  S
C906        S908   1.805       .  S
S907        H910   1.405       .  S
S908        H909   1.407       .  S
C913        C914   1.412       .  A
C913        C918   1.406       .  A
C914        C915   1.419       .  A
C914        H923   1.083       .  S
C915        C916   1.424       .  A
C915        S919   1.802       .  S
C916        C917   1.417       .  A
C917        C918   1.392       .  A
C917        H924   1.081   1_554  S
C918        S920   1.805       .  S
S919        H922   1.402       .  S
S920        H921   1.407       .  S
C925        C926   1.401       .  A
C925        C930   1.407       .  A
C926        C927   1.398       .  A
C926        H935   1.084       .  S
C927        C928   1.413       .  A
C927        S931   1.803       .  S
C928        C929   1.402       .  A
C929        C930   1.382       .  A
C929        H936   1.084       .  S
C930        S932   1.799       .  S
S931        H934   1.407       .  S
S932        H933   1.396       .  S
C937        C938   1.404       .  A
C937        C942   1.405       .  A
C938        C939   1.396       .  A
C938        H947   1.084       .  S
C939        C940   1.407       .  A
C939        S943   1.803       .  S
C940        C941   1.401       .  A
C941        C942   1.385       .  A
C941        H948   1.079       .  S
C942        S944   1.807       .  S
S943        H946   1.403       .  S
S944        H945   1.406       .  S
C949        C950   1.398       .  A
C949        C954   1.407       .  A
C950        C951   1.380       .  A
C950        H959   1.084       .  S
C951        C952   1.411       .  A
C951        S955   1.808       .  S
C952        C953   1.407       .  A
C953        C954   1.410       .  A
C953        H960   1.083       .  S
C954        S956   1.802       .  S
S955        H958   1.406       .  S
S956        H957   1.407       .  S
C961        C962   1.409       .  A
C961        C966   1.418       .  A
C962        C963   1.410       .  A
C962        H971   1.083       .  S
C963        C964   1.416       .  A
C963        S967   1.801       .  S
C964        C965   1.405       .  A
C965        C966   1.398       .  A
C965        H972   1.085       .  S
C966        S968   1.804       .  S
S967        H970   1.401       .  S
S968        H969   1.404       .  S
C973        C974   1.404       .  A
C973        C978   1.413       .  A
C974        C975   1.408       .  A
C974        H983   1.084       .  S
C975        C976   1.420       .  A
C975        S979   1.800       .  S
C976        C977   1.409       .  A
C977        C978   1.401       .  A
C977        H984   1.083       .  S
C978        S980   1.803       .  S
S979        H982   1.406       .  S
S980        H981   1.407       .  S
C985        C986   1.409       .  A
C985        C990   1.404       .  A
C986        C987   1.388       .  A
C986        H995   1.084       .  S
C987        C988   1.405       .  A
C987        S991   1.805       .  S
C988        C989   1.410       .  A
C989        C990   1.380       .  A
C989        H996   1.083       .  S
C990        S992   1.806       .  S
S991        H994   1.407       .  S
S992        H993   1.408       .  S
C997        C998   1.409       .  A
C997       C1002   1.418       .  A
C998        C999   1.405       .  A
C998       H1007   1.082       .  S
C999       C1000   1.406       .  A
C999       S1003   1.804       .  S
C1000      C1001   1.398       .  A
C1001      C1002   1.388       .  A
C1001      H1008   1.078       .  S
C1002      S1004   1.814       .  S
S1003      H1006   1.407       .  S
S1004      H1005   1.407       .  S
C1009      C1010   1.417       .  A
C1009      C1014   1.414       .  A
C1010      C1011   1.401       .  A
C1010      H1019   1.080       .  S
C1011      C1012   1.414   1_655  A
C1011      S1015   1.802       .  S
C1012      C1013   1.423       .  A
C1013      C1014   1.420   1_455  A
C1013      H1020   1.083       .  S
C1014      S1016   1.800   1_655  S
S1015      H1018   1.407   1_655  S
S1016      H1017   1.405       .  S
C1021      C1022   1.402       .  A
C1021      C1026   1.421       .  A
C1022      C1023   1.403       .  A
C1022      H1031   1.083       .  S
C1023      C1024   1.409       .  A
C1023      S1027   1.801       .  S
C1024      C1025   1.389       .  A
C1025      C1026   1.381       .  A
C1025      H1032   1.085       .  S
C1026      S1028   1.810       .  S
S1027      H1030   1.406       .  S
S1028      H1029   1.407       .  S
C1033      C1034   1.412       .  A
C1033      C1038   1.412   1_655  A
C1034      C1035   1.424       .  A
C1034      H1043   1.083       .  S
C1035      C1036   1.426   1_655  A
C1035      S1039   1.800       .  S
C1036      C1037   1.413       .  A
C1037      C1038   1.399       .  A
C1037      H1044   1.072       .  S
C1038      S1040   1.806       .  S
S1039      H1042   1.407       .  S
S1040      H1041   1.407       .  S
C1045      C1046   1.404       .  A
C1045      C1050   1.419       .  A
C1046      C1047   1.382       .  A
C1046      H1055   1.079       .  S
C1047      C1048   1.415       .  A
C1047      S1051   1.808       .  S
C1048      C1049   1.399       .  A
C1049      C1050   1.400       .  A
C1049      H1056   1.083       .  S
C1050      S1052   1.804       .  S
S1051      H1054   1.408       .  S
S1052      H1053   1.408       .  S
C1057      C1058   1.393       .  A
C1057      C1062   1.419       .  A
C1058      C1059   1.387       .  A
C1058      H1067   1.083       .  S
C1059      C1060   1.421       .  A
C1059      S1063   1.803       .  S
C1060      C1061   1.400       .  A
C1061      C1062   1.393       .  A
C1061      H1068   1.084       .  S
C1062      S1064   1.804       .  S
S1063      H1066   1.406       .  S
S1064      H1065   1.407       .  S
C1069      C1070   1.405       .  A
C1069      C1074   1.414       .  A
C1070      C1071   1.382       .  A
C1070      H1079   1.082       .  S
C1071      C1072   1.408       .  A
C1071      S1075   1.806       .  S
C1072      C1073   1.400       .  A
C1073      C1074   1.403       .  A
C1073      H1080   1.083       .  S
C1074      S1076   1.806       .  S
S1075      H1078   1.405       .  S
S1076      H1077   1.407       .  S
C1081      C1082   1.416       .  A
C1081      C1086   1.421       .  A
C1082      C1083   1.413       .  A
C1082      H1091   1.082       .  S
C1083      C1084   1.414       .  A
C1083      S1087   1.801       .  S
C1084      C1085   1.409       .  A
C1085      C1086   1.410       .  A
C1085      H1092   1.084       .  S
C1086      S1088   1.801       .  S
S1087      H1090   1.405       .  S
S1088      H1089   1.400       .  S
C1093      C1094   1.410       .  A
C1093      C1098   1.409       .  A
C1094      C1095   1.415       .  A
C1094      H1103   1.083       .  S
C1095      C1096   1.413       .  A
C1095      S1099   1.803       .  S
C1096      C1097   1.408       .  A
C1097      C1098   1.397       .  A
C1097      H1104   1.078       .  S
C1098      S1100   1.803       .  S
S1099      H1102   1.407       .  S
S1100      H1101   1.407       .  S
C1105      C1106   1.405       .  A
C1105      C1110   1.425       .  A
C1106      C1107   1.395       .  A
C1106      H1115   1.083       .  S
C1107      C1108   1.409       .  A
C1107      S1111   1.803       .  S
C1108      C1109   1.399       .  A
C1109      C1110   1.398       .  A
C1109      H1116   1.084       .  S
C1110      S1112   1.805       .  S
S1111      H1114   1.407       .  S
S1112      H1113   1.387       .  S
C1117      C1118   1.399       .  A
C1117      C1122   1.408       .  A
C1118      C1119   1.390       .  A
C1118      H1127   1.085       .  S
C1119      C1120   1.418       .  A
C1119      S1123   1.808       .  S
C1120      C1121   1.406       .  A
C1121      C1122   1.397       .  A
C1121      H1128   1.084       .  S
C1122      S1124   1.802       .  S
S1123      H1126   1.407       .  S
S1124      H1125   1.407       .  S
C1129      C1130   1.415       .  A
C1129      C1134   1.427       .  A
C1130      C1131   1.394       .  A
C1130      H1139   1.080       .  S
C1131      C1132   1.406       .  A
C1131      S1135   1.802       .  S
C1132      C1133   1.409       .  A
C1133      C1134   1.417       .  A
C1133      H1140   1.083       .  S
C1134      S1136   1.795       .  S
S1135      H1138   1.407       .  S
S1136      H1137   1.405       .  S
C1141      C1142   1.399       .  A
C1141      C1146   1.405       .  A
C1142      C1143   1.393       .  A
C1142      H1151   1.084       .  S
C1143      C1144   1.407       .  A
C1143      S1147   1.802       .  S
C1144      C1145   1.402       .  A
C1145      C1146   1.383       .  A
C1145      H1152   1.084       .  S
C1146      S1148   1.807       .  S
S1147      H1150   1.406       .  S
S1148      H1149   1.407       .  S
C1153      C1154   1.403       .  A
C1153      C1158   1.415       .  A
C1154      C1155   1.396       .  A
C1154      H1163   1.082       .  S
C1155      C1156   1.411       .  A
C1155      S1159   1.804       .  S
C1156      C1157   1.404       .  A
C1157      C1158   1.403       .  A
C1157      H1164   1.083       .  S
C1158      S1160   1.809       .  S
S1159      H1162   1.407       .  S
S1160      H1161   1.407       .  S
C1165      C1166   1.404       .  A
C1165      C1170   1.411       .  A
C1166      C1167   1.394       .  A
C1166      H1175   1.084       .  S
C1167      C1168   1.411       .  A
C1167      S1171   1.802       .  S
C1168      C1169   1.402       .  A
C1169      C1170   1.395       .  A
C1169      H1176   1.084       .  S
C1170      S1172   1.797       .  S
S1171      H1174   1.406       .  S
S1172      H1173   1.406       .  S
C1177      C1178   1.405       .  A
C1177      C1182   1.419       .  A
C1178      C1179   1.397       .  A
C1178      H1187   1.082       .  S
C1179      C1180   1.418       .  A
C1179      S1183   1.800       .  S
C1180      C1181   1.410       .  A
C1181      C1182   1.401       .  A
C1181      H1188   1.082       .  S
C1182      S1184   1.797       .  S
S1183      H1186   1.408       .  S
S1184      H1185   1.407       .  S
C1189      C1190   1.406       .  A
C1189      C1194   1.401       .  A
C1190      C1191   1.384       .  A
C1190      H1199   1.083       .  S
C1191      C1192   1.405       .  A
C1191      S1195   1.805       .  S
C1192      C1193   1.408       .  A
C1193      C1194   1.390       .  A
C1193      H1200   1.084       .  S
C1194      S1196   1.802       .  S
S1195      H1198   1.407       .  S
S1196      H1197   1.407       .  S
C1201      C1202   1.399       .  A
C1201      C1206   1.422       .  A
C1202      C1203   1.408       .  A
C1202      H1211   1.083       .  S
C1203      C1204   1.437       .  A
C1203      S1207   1.806       .  S
C1204      C1205   1.415       .  A
C1205      C1206   1.417       .  A
C1205      H1212   1.080       .  S
C1206      S1208   1.803       .  S
S1207      H1210   1.408       .  S
S1208      H1209   1.401       .  S
C1213      C1214   1.411       .  A
C1213      C1218   1.418       .  A
C1214      C1215   1.396       .  A
C1214      H1223   1.077       .  S
C1215      C1216   1.411       .  A
C1215      S1219   1.805       .  S
C1216      C1217   1.412       .  A
C1217      C1218   1.423       .  A
C1217      H1224   1.082       .  S
C1218      S1220   1.800       .  S
S1219      H1222   1.405       .  S
S1220      H1221   1.406       .  S
C1225      C1226   1.404       .  A
C1225      C1230   1.408       .  A
C1226      C1227   1.398       .  A
C1226      H1235   1.084       .  S
C1227      C1228   1.416       .  A
C1227      S1231   1.806       .  S
C1228      C1229   1.411   1_655  A
C1229      C1230   1.402   1_455  A
C1229      H1236   1.083       .  S
C1230      S1232   1.802       .  S
S1231      H1234   1.395       .  S
S1232      H1233   1.405       .  S
C1237      C1238   1.407       .  A
C1237      C1242   1.414       .  A
C1238      C1239   1.404       .  A
C1238      H1247   1.084       .  S
C1239      C1240   1.417       .  A
C1239      S1243   1.796       .  S
C1240      C1241   1.407       .  A
C1241      C1242   1.401       .  A
C1241      H1248   1.082   1_655  S
C1242      S1244   1.795       .  S
S1243      H1246   1.408       .  S
S1244      H1245   1.405       .  S
C1249      C1250   1.405       .  A
C1249      C1254   1.421       .  A
C1250      C1251   1.400       .  A
C1250      H1259   1.080       .  S
C1251      C1252   1.412       .  A
C1251      S1255   1.801       .  S
C1252      C1253   1.405       .  A
C1253      C1254   1.404       .  A
C1253      H1260   1.084       .  S
C1254      S1256   1.807       .  S
S1255      H1258   1.405       .  S
S1256      H1257   1.399       .  S
C1261      C1262   1.402       .  A
C1261      C1266   1.417       .  A
C1262      C1263   1.399       .  A
C1262      H1271   1.084       .  S
C1263      C1264   1.409       .  A
C1263      S1267   1.800       .  S
C1264      C1265   1.400       .  A
C1265      C1266   1.391       .  A
C1265      H1272   1.085       .  S
C1266      S1268   1.808       .  S
S1267      H1270   1.407       .  S
S1268      H1269   1.407       .  S
C1273      C1274   1.403       .  A
C1273      C1278   1.414       .  A
C1274      C1275   1.408       .  A
C1274      H1283   1.084       .  S
C1275      C1276   1.422       .  A
C1275      S1279   1.801       .  S
C1276      C1277   1.404       .  A
C1277      C1278   1.402       .  A
C1277      H1284   1.082       .  S
C1278      S1280   1.800       .  S
S1279      H1282   1.396       .  S
S1280      H1281   1.402       .  S
C1285      C1286   1.405       .  A
C1285      C1290   1.413       .  A
C1286      C1287   1.397       .  A
C1286      H1295   1.083       .  S
C1287      C1288   1.417       .  A
C1287      S1291   1.808       .  S
C1288      C1289   1.405       .  A
C1289      C1290   1.392       .  A
C1289      H1296   1.083       .  S
C1290      S1292   1.799       .  S
S1291      H1294   1.407       .  S
S1292      H1293   1.407       .  S
C1297      C1298   1.395       .  A
C1297      C1302   1.412       .  A
C1298      C1299   1.381       .  A
C1298      H1307   1.083       .  S
C1299      C1300   1.414       .  A
C1299      S1303   1.812       .  S
C1300      C1301   1.402       .  A
C1301      C1302   1.402       .  A
C1301      H1308   1.084       .  S
C1302      S1304   1.801       .  S
S1303      H1306   1.406       .  S
S1304      H1305   1.406       .  S
C1309      C1310   1.401       .  A
C1309      C1314   1.410       .  A
C1310      C1311   1.395       .  A
C1310      H1319   1.084       .  S
C1311      C1312   1.409       .  A
C1311      S1315   1.799       .  S
C1312      C1313   1.405       .  A
C1313      C1314   1.393       .  A
C1313      H1320   1.083       .  S
C1314      S1316   1.810       .  S
S1315      H1318   1.407       .  S
S1316      H1317   1.407       .  S
C1321      C1322   1.401       .  A
C1321      C1326   1.403       .  A
C1322      C1323   1.389       .  A
C1322      H1331   1.085       .  S
C1323      C1324   1.413       .  A
C1323      S1327   1.802       .  S
C1324      C1325   1.410       .  A
C1325      C1326   1.392       .  A
C1325      H1332   1.084       .  S
C1326      S1328   1.804       .  S
S1327      H1330   1.408       .  S
S1328      H1329   1.406       .  S
C1333      C1334   1.404       .  A
C1333      C1338   1.413       .  A
C1334      C1335   1.393       .  A
C1334      H1343   1.084       .  S
C1335      C1336   1.406       .  A
C1335      S1339   1.802       .  S
C1336      C1337   1.403       .  A
C1337      C1338   1.397       .  A
C1337      H1344   1.085       .  S
C1338      S1340   1.805       .  S
S1339      H1342   1.407       .  S
S1340      H1341   1.406       .  S
C1345      C1346   1.406       .  A
C1345      C1350   1.422       .  A
C1346      C1347   1.395       .  A
C1346      H1355   1.076   1_565  S
C1347      C1348   1.412       .  A
C1347      S1351   1.805       .  S
C1348      C1349   1.405       .  A
C1349      C1350   1.413       .  A
C1349      H1356   1.084       .  S
C1350      S1352   1.799       .  S
S1351      H1354   1.407       .  S
S1352      H1353   1.403       .  S
C1357      C1358   1.403       .  A
C1357      C1362   1.416       .  A
C1358      C1359   1.399       .  A
C1358      H1367   1.083       .  S
C1359      C1360   1.415       .  A
C1359      S1363   1.810       .  S
C1360      C1361   1.406       .  A
C1361      C1362   1.415       .  A
C1361      H1368   1.082       .  S
C1362      S1364   1.804       .  S
S1363      H1366   1.407       .  S
S1364      H1365   1.407       .  S
C1369      C1370   1.409       .  A
C1369      C1374   1.419       .  A
C1370      C1371   1.403       .  A
C1370      H1379   1.080       .  S
C1371      C1372   1.415       .  A
C1371      S1375   1.803       .  S
C1372      C1373   1.408       .  A
C1373      C1374   1.418       .  A
C1373      H1380   1.082       .  S
C1374      S1376   1.803       .  S
S1375      H1378   1.407       .  S
S1376      H1377   1.407       .  S
C1381      C1382   1.400       .  A
C1381      C1386   1.423       .  A
C1382      C1383   1.400       .  A
C1382      H1391   1.084       .  S
C1383      C1384   1.425       .  A
C1383      S1387   1.802       .  S
C1384      C1385   1.411       .  A
C1385      C1386   1.417       .  A
C1385      H1392   1.082       .  S
C1386      S1388   1.804       .  S
S1387      H1390   1.407       .  S
S1388      H1389   1.402       .  S
C1393      C1394   1.409       .  A
C1393      C1398   1.410       .  A
C1394      C1395   1.409       .  A
C1394      H1403   1.084       .  S
C1395      C1396   1.416       .  A
C1395      S1399   1.798       .  S
C1396      C1397   1.409       .  A
C1397      C1398   1.401       .  A
C1397      H1404   1.076       .  S
C1398      S1400   1.802       .  S
S1399      H1402   1.404       .  S
S1400      H1401   1.407       .  S
C1405      C1406   1.411       .  A
C1405      C1410   1.414       .  A
C1406      C1407   1.412       .  A
C1406      H1415   1.083       .  S
C1407      C1408   1.417       .  A
C1407      S1411   1.800       .  S
C1408      C1409   1.406       .  A
C1409      C1410   1.399       .  A
C1409      H1416   1.084       .  S
C1410      S1412   1.795       .  S
S1411      H1414   1.406       .  S
S1412      H1413   1.399       .  S
C1417      C1418   1.405       .  A
C1417      C1422   1.418       .  A
C1418      C1419   1.409       .  A
C1418      H1427   1.084       .  S
C1419      C1420   1.424       .  A
C1419      S1423   1.798       .  S
C1420      C1421   1.403       .  A
C1421      C1422   1.404       .  A
C1421      H1428   1.083       .  S
C1422      S1424   1.802       .  S
S1423      H1426   1.401       .  S
S1424      H1425   1.407       .  S
C1429      C1430   1.402       .  A
C1429      C1434   1.406       .  A
C1430      C1431   1.391       .  A
C1430      H1439   1.084       .  S
C1431      C1432   1.408       .  A
C1431      S1435   1.804       .  S
C1432      C1433   1.403       .  A
C1433      C1434   1.395       .  A
C1433      H1440   1.084       .  S
C1434      S1436   1.800       .  S
S1435      H1438   1.406       .  S
S1436      H1437   1.407       .  S
C1441      C1442   1.414       .  A
C1441      C1446   1.428       .  A
C1442      C1443   1.403       .  A
C1442      H1451   1.076       .  S
C1443      C1444   1.425       .  A
C1443      S1447   1.799       .  S
C1444      C1445   1.424       .  A
C1445      C1446   1.428       .  A
C1445      H1452   1.078       .  S
C1446      S1448   1.797       .  S
S1447      H1450   1.408       .  S
S1448      H1449   1.407       .  S
C1453      C1454   1.407       .  A
C1453      C1458   1.419       .  A
C1454      C1455   1.400       .  A
C1454      H1463   1.084       .  S
C1455      C1456   1.417       .  A
C1455      S1459   1.796       .  S
C1456      C1457   1.404       .  A
C1457      C1458   1.395       .  A
C1457      H1464   1.082       .  S
C1458      S1460   1.802       .  S
S1459      H1462   1.407       .  S
S1460      H1461   1.406       .  S
C1465      C1466   1.405       .  A
C1465      C1470   1.409       .  A
C1466      C1467   1.402       .  A
C1466      H1475   1.084       .  S
C1467      C1468   1.414       .  A
C1467      S1471   1.803       .  S
C1468      C1469   1.409       .  A
C1469      C1470   1.387       .  A
C1469      H1476   1.083       .  S
C1470      S1472   1.802       .  S
S1471      H1474   1.407       .  S
S1472      H1473   1.404       .  S
C1477      C1478   1.402       .  A
C1477      C1482   1.407       .  A
C1478      C1479   1.375       .  A
C1478      H1487   1.086       .  S
C1479      C1480   1.408       .  A
C1479      S1483   1.808       .  S
C1480      C1481   1.405       .  A
C1481      C1482   1.400       .  A
C1481      H1488   1.084       .  S
C1482      S1484   1.802       .  S
S1483      H1486   1.407       .  S
S1484      H1485   1.405       .  S
C1489      C1490   1.402       .  A
C1489      C1494   1.412       .  A
C1490      C1491   1.404       .  A
C1490      H1499   1.084       .  S
C1491      C1492   1.417       .  A
C1491      S1495   1.797       .  S
C1492      C1493   1.409       .  A
C1493      C1494   1.404       .  A
C1493      H1500   1.081       .  S
C1494      S1496   1.803       .  S
S1495      H1498   1.404       .  S
S1496      H1497   1.406       .  S
C1501      C1502   1.403       .  A
C1501      C1506   1.413       .  A
C1502      C1503   1.391       .  A
C1502      H1511   1.084       .  S
C1503      C1504   1.406       .  A
C1503      S1507   1.803       .  S
C1504      C1505   1.400       .  A
C1505      C1506   1.393       .  A
C1505      H1512   1.085       .  S
C1506      S1508   1.805       .  S
S1507      H1510   1.407       .  S
S1508      H1509   1.406       .  S
C1513      C1514   1.407       .  A
C1513      C1518   1.414       .  A
C1514      C1515   1.393       .  A
C1514      H1523   1.085       .  S
C1515      C1516   1.413       .  A
C1515      S1519   1.802       .  S
C1516      C1517   1.410       .  A
C1517      C1518   1.410       .  A
C1517      H1524   1.082       .  S
C1518      S1520   1.800       .  S
S1519      H1522   1.395       .  S
S1520      H1521   1.401       .  S
C1525      C1526   1.402       .  A
C1525      C1530   1.405       .  A
C1526      C1527   1.391       .  A
C1526      H1535   1.084       .  S
C1527      C1528   1.409       .  A
C1527      S1531   1.804       .  S
C1528      C1529   1.406       .  A
C1529      C1530   1.390       .  A
C1529      H1536   1.082       .  S
C1530      S1532   1.804       .  S
S1531      H1534   1.406       .  S
S1532      H1533   1.407       .  S
C1537      C1538   1.406       .  A
C1537      C1542   1.423       .  A
C1538      C1539   1.405       .  A
C1538      H1547   1.083       .  S
C1539      C1540   1.424       .  A
C1539      S1543   1.806       .  S
C1540      C1541   1.405       .  A
C1541      C1542   1.414       .  A
C1541      H1548   1.082       .  S
C1542      S1544   1.805       .  S
S1543      H1546   1.407       .  S
S1544      H1545   1.407       .  S
C1549      C1550   1.406       .  A
C1549      C1554   1.422       .  A
C1550      C1551   1.396       .  A
C1550      H1559   1.085       .  S
C1551      C1552   1.417       .  A
C1551      S1555   1.797       .  S
C1552      C1553   1.411       .  A
C1553      C1554   1.420       .  A
C1553      H1560   1.083       .  S
C1554      S1556   1.795       .  S
S1555      H1558   1.406       .  S
S1556      H1557   1.405       .  S
C1561      C1562   1.399       .  A
C1561      C1566   1.415       .  A
C1562      C1563   1.389       .  A
C1562      H1571   1.083       .  S
C1563      C1564   1.422       .  A
C1563      S1567   1.815       .  S
C1564      C1565   1.407       .  A
C1565      C1566   1.406       .  A
C1565      H1572   1.084       .  S
C1566      S1568   1.803       .  S
S1567      H1570   1.407       .  S
S1568      H1569   1.406       .  S
C1573      C1574   1.404       .  A
C1573      C1578   1.405       .  A
C1574      C1575   1.389       .  A
C1574      H1583   1.081       .  S
C1575      C1576   1.408       .  A
C1575      S1579   1.804       .  S
C1576      C1577   1.407       .  A
C1577      C1578   1.398       .  A
C1577      H1584   1.082       .  S
C1578      S1580   1.801       .  S
S1579      H1582   1.407       .  S
S1580      H1581   1.407       .  S
C1585      C1586   1.403       .  A
C1585      C1590   1.413       .  A
C1586      C1587   1.409       .  A
C1586      H1595   1.084       .  S
C1587      C1588   1.421       .  A
C1587      S1591   1.800       .  S
C1588      C1589   1.404       .  A
C1589      C1590   1.395       .  A
C1589      H1596   1.084       .  S
C1590      S1592   1.801       .  S
S1591      H1594   1.402   1_565  S
S1592      H1593   1.407       .  S
C1597      C1598   1.399       .  A
C1597      C1602   1.412       .  A
C1598      C1599   1.382       .  A
C1598      H1607   1.082       .  S
C1599      C1600   1.410       .  A
C1599      S1603   1.807       .  S
C1600      C1601   1.407       .  A
C1601      C1602   1.409       .  A
C1601      H1608   1.083       .  S
C1602      S1604   1.802       .  S
S1603      H1606   1.407       .  S
S1604      H1605   1.405       .  S
C1609      C1610   1.405       .  A
C1609      C1614   1.413       .  A
C1610      C1611   1.403   1_565  A
C1610      H1619   1.084   1_565  S
C1611      C1612   1.421   1_545  A
C1611      S1615   1.803       .  S
C1612      C1613   1.411       .  A
C1613      C1614   1.406       .  A
C1613      H1620   1.084       .  S
C1614      S1616   1.798       .  S
S1615      H1618   1.407       .  S
S1616      H1617   1.404       .  S
C1621      C1622   1.402       .  A
C1621      C1626   1.416       .  A
C1622      C1623   1.397       .  A
C1622      H1631   1.084       .  S
C1623      C1624   1.416       .  A
C1623      S1627   1.802       .  S
C1624      C1625   1.405       .  A
C1625      C1626   1.389       .  A
C1625      H1632   1.084       .  S
C1626      S1628   1.808       .  S
S1627      H1630   1.408       .  S
S1628      H1629   1.407       .  S
C1633      C1634   1.403       .  A
C1633      C1638   1.423       .  A
C1634      C1635   1.408       .  A
C1634      H1643   1.083       .  S
C1635      C1636   1.427       .  A
C1635      S1639   1.803       .  S
C1636      C1637   1.407       .  A
C1637      C1638   1.408       .  A
C1637      H1644   1.082       .  S
C1638      S1640   1.805       .  S
S1639      H1642   1.401       .  S
S1640      H1641   1.407       .  S
C1645      C1646   1.412       .  A
C1645      C1650   1.419       .  A
C1646      C1647   1.394       .  A
C1646      H1655   1.079       .  S
C1647      C1648   1.405       .  A
C1647      S1651   1.799       .  S
C1648      C1649   1.403       .  A
C1649      C1650   1.403       .  A
C1649      H1656   1.083       .  S
C1650      S1652   1.804       .  S
S1651      H1654   1.407       .  S
S1652      H1653   1.407       .  S
C1657      C1658   1.411       .  A
C1657      C1662   1.407       .  A
C1658      C1659   1.422       .  A
C1658      H1667   1.083       .  S
C1659      C1660   1.426       .  A
C1659      S1663   1.796       .  S
C1660      C1661   1.416       .  A
C1661      C1662   1.389       .  A
C1661      H1668   1.078   1_556  S
C1662      S1664   1.807       .  S
S1663      H1666   1.406       .  S
S1664      H1665   1.407       .  S
C1669      C1670   1.409       .  A
C1669      C1674   1.418       .  A
C1670      C1671   1.386       .  A
C1670      H1679   1.080       .  S
C1671      C1672   1.411       .  A
C1671      S1675   1.812       .  S
C1672      C1673   1.406       .  A
C1673      C1674   1.400       .  A
C1673      H1680   1.084       .  S
C1674      S1676   1.803       .  S
S1675      H1678   1.408       .  S
S1676      H1677   1.407       .  S
C1681      C1682   1.401       .  A
C1681      C1686   1.412       .  A
C1682      C1683   1.384       .  A
C1682      H1691   1.084       .  S
C1683      C1684   1.410       .  A
C1683      S1687   1.802       .  S
C1684      C1685   1.401       .  A
C1685      C1686   1.396       .  A
C1685      H1692   1.084       .  S
C1686      S1688   1.804       .  S
S1687      H1690   1.402       .  S
S1688      H1689   1.407       .  S
C1693      C1694   1.399       .  A
C1693      C1698   1.416       .  A
C1694      C1695   1.395       .  A
C1694      H1703   1.084       .  S
C1695      C1696   1.415       .  A
C1695      S1699   1.801       .  S
C1696      C1697   1.397       .  A
C1697      C1698   1.391       .  A
C1697      H1704   1.083       .  S
C1698      S1700   1.812       .  S
S1699      H1702   1.407       .  S
S1700      H1701   1.406       .  S
C1705      C1706   1.404       .  A
C1705      C1710   1.412       .  A
C1706      C1707   1.397       .  A
C1706      H1715   1.085       .  S
C1707      C1708   1.420       .  A
C1707      S1711   1.800   1_655  S
C1708      C1709   1.408       .  A
C1709      C1710   1.406       .  A
C1709      H1716   1.084       .  S
C1710      S1712   1.801       .  S
S1711      H1714   1.400       .  S
S1712      H1713   1.404       .  S
C1717      C1718   1.408       .  A
C1717      C1722   1.408       .  A
C1718      C1719   1.398       .  A
C1718      H1727   1.084       .  S
C1719      C1720   1.411       .  A
C1719      S1723   1.803       .  S
C1720      C1721   1.407       .  A
C1721      C1722   1.392       .  A
C1721      H1728   1.075       .  S
C1722      S1724   1.807       .  S
S1723      H1726   1.407       .  S
S1724      H1725   1.407       .  S
C1729      C1730   1.408       .  A
C1729      C1734   1.410       .  A
C1730      C1731   1.411       .  A
C1730      H1739   1.081       .  S
C1731      C1732   1.426       .  A
C1731      S1735   1.808       .  S
C1732      C1733   1.417   1_655  A
C1733      C1734   1.412   1_455  A
C1733      H1740   1.080       .  S
C1734      S1736   1.800   1_655  S
S1735      H1738   1.407       .  S
S1736      H1737   1.406   1_455  S
C1741      C1742   1.409       .  A
C1741      C1746   1.411       .  A
C1742      C1743   1.384       .  A
C1742      H1751   1.084       .  S
C1743      C1744   1.403       .  A
C1743      S1747   1.806       .  S
C1744      C1745   1.403       .  A
C1745      C1746   1.401       .  A
C1745      H1752   1.084       .  S
C1746      S1748   1.802       .  S
S1747      H1750   1.407       .  S
S1748      H1749   1.406       .  S
C1753      C1754   1.407       .  A
C1753      C1758   1.419       .  A
C1754      C1755   1.418       .  A
C1754      H1763   1.083       .  S
C1755      C1756   1.421       .  A
C1755      S1759   1.800       .  S
C1756      C1757   1.400       .  A
C1757      C1758   1.397       .  A
C1757      H1764   1.080       .  S
C1758      S1760   1.804       .  S
S1759      H1762   1.405       .  S
S1760      H1761   1.406       .  S
C1765      C1766   1.405       .  A
C1765      C1770   1.408       .  A
C1766      C1767   1.388       .  A
C1766      H1775   1.085       .  S
C1767      C1768   1.407       .  A
C1767      S1771   1.805       .  S
C1768      C1769   1.406       .  A
C1769      C1770   1.397       .  A
C1769      H1776   1.084       .  S
C1770      S1772   1.804       .  S
S1771      H1774   1.407       .  S
S1772      H1773   1.407       .  S
C1777      C1778   1.406       .  A
C1777      C1782   1.416       .  A
C1778      C1779   1.400       .  A
C1778      H1787   1.077       .  S
C1779      C1780   1.416       .  A
C1779      S1783   1.806       .  S
C1780      C1781   1.416       .  A
C1781      C1782   1.427       .  A
C1781      H1788   1.081       .  S
C1782      S1784   1.802       .  S
S1783      H1786   1.406       .  S
S1784      H1785   1.407       .  S
C1789      C1790   1.399       .  A
C1789      C1794   1.414       .  A
C1790      C1791   1.393       .  A
C1790      H1799   1.084       .  S
C1791      C1792   1.413       .  A
C1791      S1795   1.798       .  S
C1792      C1793   1.395       .  A
C1793      C1794   1.393       .  A
C1793      H1800   1.083       .  S
C1794      S1796   1.806       .  S
S1795      H1798   1.405       .  S
S1796      H1797   1.406       .  S
C1801      C1802   1.408       .  A
C1801      C1806   1.419       .  A
C1802      C1803   1.390       .  A
C1802      H1811   1.081       .  S
C1803      C1804   1.413       .  A
C1803      S1807   1.802       .  S
C1804      C1805   1.406       .  A
C1805      C1806   1.415       .  A
C1805      H1812   1.082       .  S
C1806      S1808   1.801       .  S
S1807      H1810   1.407       .  S
S1808      H1809   1.407       .  S
C1813      C1814   1.403       .  A
C1813      C1818   1.408       .  A
C1814      C1815   1.389       .  A
C1814      H1823   1.081       .  S
C1815      C1816   1.408       .  A
C1815      S1819   1.804       .  S
C1816      C1817   1.403       .  A
C1817      C1818   1.404       .  A
C1817      H1824   1.083       .  S
C1818      S1820   1.804       .  S
S1819      H1822   1.405       .  S
S1820      H1821   1.407       .  S
C1825      C1826   1.410       .  A
C1825      C1830   1.411       .  A
C1826      C1827   1.405       .  A
C1826      H1835   1.084       .  S
C1827      C1828   1.409       .  A
C1827      S1831   1.800       .  S
C1828      C1829   1.409       .  A
C1829      C1830   1.399       .  A
C1829      H1836   1.085       .  S
C1830      S1832   1.801       .  S
S1831      H1834   1.406       .  S
S1832      H1833   1.401       .  S
C1837      C1838   1.403       .  A
C1837      C1842   1.412       .  A
C1838      C1839   1.401       .  A
C1838      H1847   1.084       .  S
C1839      C1840   1.421       .  A
C1839      S1843   1.803       .  S
C1840      C1841   1.414       .  A
C1841      C1842   1.409       .  A
C1841      H1848   1.081       .  S
C1842      S1844   1.800       .  S
S1843      H1846   1.407       .  S
S1844      H1845   1.401       .  S
C1849      C1850   1.407       .  A
C1849      C1854   1.414       .  A
C1850      C1851   1.409       .  A
C1850      H1859   1.084       .  S
C1851      C1852   1.416       .  A
C1851      S1855   1.800       .  S
C1852      C1853   1.407       .  A
C1853      C1854   1.403       .  A
C1853      H1860   1.084       .  S
C1854      S1856   1.797       .  S
S1855      H1858   1.403       .  S
S1856      H1857   1.406       .  S
C1861      C1862   1.405       .  A
C1861      C1866   1.420       .  A
C1862      C1863   1.393       .  A
C1862      H1871   1.073       .  S
C1863      C1864   1.409       .  A
C1863      S1867   1.807   1_554  S
C1864      C1865   1.411       .  A
C1865      C1866   1.419       .  A
C1865      H1872   1.083       .  S
C1866      S1868   1.794       .  S
S1867      H1870   1.408   1_556  S
S1868      H1869   1.407       .  S
C1873      C1874   1.407       .  A
C1873      C1878   1.410       .  A
C1874      C1875   1.412       .  A
C1874      H1883   1.083       .  S
C1875      C1876   1.419       .  A
C1875      S1879   1.801       .  S
C1876      C1877   1.413       .  A
C1877      C1878   1.405       .  A
C1877      H1884   1.083   1_565  S
C1878      S1880   1.802   1_565  S
S1879      H1882   1.406       .  S
S1880      H1881   1.406   1_545  S
C1885      C1886   1.399       .  A
C1885      C1890   1.407       .  A
C1886      C1887   1.373       .  A
C1886      H1895   1.086       .  S
C1887      C1888   1.405       .  A
C1887      S1891   1.793       .  S
C1888      C1889   1.405       .  A
C1889      C1890   1.403       .  A
C1889      H1896   1.084       .  S
C1890      S1892   1.801       .  S
S1891      H1894   1.408       .  S
S1892      H1893   1.405       .  S
C1897      C1898   1.405       .  A
C1897      C1902   1.430       .  A
C1898      C1899   1.407       .  A
C1898      H1907   1.084       .  S
C1899      C1900   1.420       .  A
C1899      S1903   1.804       .  S
C1900      C1901   1.400       .  A
C1901      C1902   1.408       .  A
C1901      H1908   1.084       .  S
C1902      S1904   1.802       .  S
S1903      H1906   1.407       .  S
S1904      H1905   1.386       .  S
C1909      C1910   1.406       .  A
C1909      C1914   1.419       .  A
C1910      C1911   1.396       .  A
C1910      H1919   1.082       .  S
C1911      C1912   1.406       .  A
C1911      S1915   1.802       .  S
C1912      C1913   1.400       .  A
C1913      C1914   1.394       .  A
C1913      H1920   1.083       .  S
C1914      S1916   1.814       .  S
S1915      H1918   1.407       .  S
S1916      H1917   1.407       .  S
C1921      C1922   1.408   1_655  A
C1921      C1926   1.418       .  A
C1922      C1923   1.407       .  A
C1922      H1931   1.083       .  S
C1923      C1924   1.415       .  A
C1923      S1927   1.802       .  S
C1924      C1925   1.411       .  A
C1925      C1926   1.415   1_455  A
C1925      H1932   1.083       .  S
C1926      S1928   1.800       .  S
S1927      H1930   1.406       .  S
S1928      H1929   1.402       .  S
C1933      C1934   1.397       .  A
C1933      C1938   1.409       .  A
C1934      C1935   1.392       .  A
C1934      H1943   1.084       .  S
C1935      C1936   1.411       .  A
C1935      S1939   1.804       .  S
C1936      C1937   1.393       .  A
C1937      C1938   1.385       .  A
C1937      H1944   1.084       .  S
C1938      S1940   1.809       .  S
S1939      H1942   1.407       .  S
S1940      H1941   1.406       .  S
C1945      C1946   1.402   1_655  A
C1945      C1950   1.416       .  A
C1946      C1947   1.410       .  A
C1946      H1955   1.084       .  S
C1947      C1948   1.429       .  A
C1947      S1951   1.809       .  S
C1948      C1949   1.403   1_455  A
C1949      C1950   1.400       .  A
C1949      H1956   1.084       .  S
C1950      S1952   1.804       .  S
S1951      H1954   1.398       .  S
S1952      H1953   1.407       .  S
C1957      C1958   1.398       .  A
C1957      C1962   1.412       .  A
C1958      C1959   1.390       .  A
C1958      H1967   1.084       .  S
C1959      C1960   1.411       .  A
C1959      S1963   1.804       .  S
C1960      C1961   1.395       .  A
C1961      C1962   1.384       .  A
C1961      H1968   1.085       .  S
C1962      S1964   1.804       .  S
S1963      H1966   1.407       .  S
S1964      H1965   1.405       .  S
C1969      C1970   1.413       .  A
C1969      C1974   1.417       .  A
C1970      C1971   1.388       .  A
C1970      H1979   1.085       .  S
C1971      C1972   1.409       .  A
C1971      S1975   1.802       .  S
C1972      C1973   1.413       .  A
C1973      C1974   1.413       .  A
C1973      H1980   1.083       .  S
C1974      S1976   1.793       .  S
S1975      H1978   1.402       .  S
S1976      H1977   1.408       .  S
C1981      C1982   1.403       .  A
C1981      C1986   1.410       .  A
C1982      C1983   1.385       .  A
C1982      H1991   1.084       .  S
C1983      C1984   1.405       .  A
C1983      S1987   1.805       .  S
C1984      C1985   1.402       .  A
C1985      C1986   1.395       .  A
C1985      H1992   1.084       .  S
C1986      S1988   1.803       .  S
S1987      H1990   1.407       .  S
S1988      H1989   1.407       .  S
C1993      C1994   1.406       .  A
C1993      C1998   1.414       .  A
C1994      C1995   1.405       .  A
C1994      H2003   1.084       .  S
C1995      C1996   1.415       .  A
C1995      S1999   1.800       .  S
C1996      C1997   1.411       .  A
C1997      C1998   1.408       .  A
C1997      H2004   1.081       .  S
C1998      S2000   1.801       .  S
S1999      H2002   1.407       .  S
S2000      H2001   1.403       .  S
C2005      C2006   1.406       .  A
C2005      C2010   1.416       .  A
C2006      C2007   1.395       .  A
C2006      H2015   1.084       .  S
C2007      C2008   1.410       .  A
C2007      S2011   1.804       .  S
C2008      C2009   1.403       .  A
C2009      C2010   1.400       .  A
C2009      H2016   1.083       .  S
C2010      S2012   1.805       .  S
S2011      H2014   1.406       .  S
S2012      H2013   1.407       .  S
C2017      C2018   1.415       .  A
C2017      C2022   1.422       .  A
C2018      C2019   1.419       .  A
C2018      H2027   1.082       .  S
C2019      C2020   1.420       .  A
C2019      S2023   1.794       .  S
C2020      C2021   1.408       .  A
C2021      C2022   1.397       .  A
C2021      H2028   1.084       .  S
C2022      S2024   1.806       .  S
S2023      H2026   1.407       .  S
S2024      H2025   1.392       .  S
C2029      C2030   1.409       .  A
C2029      C2034   1.411       .  A
C2030      C2031   1.410       .  A
C2030      H2039   1.083       .  S
C2031      C2032   1.413       .  A
C2031      S2035   1.801       .  S
C2032      C2033   1.408       .  A
C2033      C2034   1.398       .  A
C2033      H2040   1.085       .  S
C2034      S2036   1.797       .  S
S2035      H2038   1.405       .  S
S2036      H2037   1.406       .  S
C2041      C2042   1.408       .  A
C2041      C2046   1.411       .  A
C2042      C2043   1.404       .  A
C2042      H2051   1.080       .  S
C2043      C2044   1.411       .  A
C2043      S2047   1.802       .  S
C2044      C2045   1.408       .  A
C2045      C2046   1.412       .  A
C2045      H2052   1.083       .  S
C2046      S2048   1.802       .  S
S2047      H2050   1.405       .  S
S2048      H2049   1.407       .  S
C2053      C2054   1.403       .  A
C2053      C2058   1.417       .  A
C2054      C2055   1.409       .  A
C2054      H2063   1.084       .  S
C2055      C2056   1.425       .  A
C2055      S2059   1.806       .  S
C2056      C2057   1.405       .  A
C2057      C2058   1.397       .  A
C2057      H2064   1.082       .  S
C2058      S2060   1.807       .  S
S2059      H2062   1.398       .  S
S2060      H2061   1.407       .  S
C2065      C2066   1.409       .  A
C2065      C2070   1.408       .  A
C2066      C2067   1.410       .  A
C2066      H2075   1.082       .  S
C2067      C2068   1.414       .  A
C2067      S2071   1.799       .  S
C2068      C2069   1.410       .  A
C2069      C2070   1.397       .  A
C2069      H2076   1.084       .  S
C2070      S2072   1.799       .  S
S2071      H2074   1.401       .  S
S2072      H2073   1.407       .  S
C2077      C2078   1.408       .  A
C2077      C2082   1.417       .  A
C2078      C2079   1.403       .  A
C2078      H2087   1.081       .  S
C2079      C2080   1.413       .  A
C2079      S2083   1.801       .  S
C2080      C2081   1.405       .  A
C2081      C2082   1.412       .  A
C2081      H2088   1.083       .  S
C2082      S2084   1.802       .  S
S2083      H2086   1.406       .  S
S2084      H2085   1.407       .  S
C2089      C2090   1.408       .  A
C2089      C2094   1.420       .  A
C2090      C2091   1.404       .  A
C2090      H2099   1.084       .  S
C2091      C2092   1.416       .  A
C2091      S2095   1.803       .  S
C2092      C2093   1.406       .  A
C2093      C2094   1.413       .  A
C2093      H2100   1.084       .  S
C2094      S2096   1.796       .  S
S2095      H2098   1.406       .  S
S2096      H2097   1.404       .  S
C2101      C2102   1.410       .  A
C2101      C2106   1.413       .  A
C2102      C2103   1.408       .  A
C2102      H2111   1.079       .  S
C2103      C2104   1.413       .  A
C2103      S2107   1.801       .  S
C2104      C2105   1.413       .  A
C2105      C2106   1.416       .  A
C2105      H2112   1.083       .  S
C2106      S2108   1.804       .  S
S2107      H2110   1.407       .  S
S2108      H2109   1.407       .  S
C2113      C2114   1.417       .  A
C2113      C2118   1.419       .  A
C2114      C2115   1.415       .  A
C2114      H2123   1.082       .  S
C2115      C2116   1.414       .  A
C2115      S2119   1.801       .  S
C2116      C2117   1.413       .  A
C2117      C2118   1.408       .  A
C2117      H2124   1.083       .  S
C2118      S2120   1.802       .  S
S2119      H2122   1.404       .  S
S2120      H2121   1.397       .  S
C2125      C2126   1.412       .  A
C2125      C2130   1.415       .  A
C2126      C2127   1.404       .  A
C2126      H2135   1.083       .  S
C2127      C2128   1.411       .  A
C2127      S2131   1.800       .  S
C2128      C2129   1.409       .  A
C2129      C2130   1.403       .  A
C2129      H2136   1.084       .  S
C2130      S2132   1.803       .  S
S2131      H2134   1.402       .  S
S2132      H2133   1.399       .  S
C2137      C2138   1.407       .  A
C2137      C2142   1.423       .  A
C2138      C2139   1.407       .  A
C2138      H2147   1.081       .  S
C2139      C2140   1.416       .  A
C2139      S2143   1.803       .  S
C2140      C2141   1.407       .  A
C2141      C2142   1.413       .  A
C2141      H2148   1.084       .  S
C2142      S2144   1.800       .  S
S2143      H2146   1.405       .  S
S2144      H2145   1.401       .  S
C2149      C2150   1.403       .  A
C2149      C2154   1.419       .  A
C2150      C2151   1.400       .  A
C2150      H2159   1.082       .  S
C2151      C2152   1.413       .  A
C2151      S2155   1.796       .  S
C2152      C2153   1.402       .  A
C2153      C2154   1.400       .  A
C2153      H2160   1.084       .  S
C2154      S2156   1.803       .  S
S2155      H2158   1.403       .  S
S2156      H2157   1.399       .  S
C2161      C2162   1.410       .  A
C2161      C2166   1.424       .  A
C2162      C2163   1.400       .  A
C2162      H2171   1.079       .  S
C2163      C2164   1.414       .  A
C2163      S2167   1.805       .  S
C2164      C2165   1.405       .  A
C2165      C2166   1.413       .  A
C2165      H2172   1.084       .  S
C2166      S2168   1.793       .  S
S2167      H2170   1.407       .  S
S2168      H2169   1.407       .  S
C2173      C2174   1.399       .  A
C2173      C2178   1.427       .  A
C2174      C2175   1.396       .  A
C2174      H2183   1.084       .  S
C2175      C2176   1.420       .  A
C2175      S2179   1.807       .  S
C2176      C2177   1.405       .  A
C2177      C2178   1.415       .  A
C2177      H2184   1.083       .  S
C2178      S2180   1.804       .  S
S2179      H2182   1.407       .  S
S2180      H2181   1.400       .  S
C2185      C2186   1.410       .  A
C2185      C2190   1.416       .  A
C2186      C2187   1.400       .  A
C2186      H2195   1.079       .  S
C2187      C2188   1.409       .  A
C2187      S2191   1.801       .  S
C2188      C2189   1.409       .  A
C2189      C2190   1.406       .  A
C2189      H2196   1.084       .  S
C2190      S2192   1.804       .  S
S2191      H2194   1.404       .  S
S2192      H2193   1.397       .  S
C2197      C2198   1.409       .  A
C2197      C2202   1.422       .  A
C2198      C2199   1.406       .  A
C2198      H2207   1.083       .  S
C2199      C2200   1.415       .  A
C2199      S2203   1.803       .  S
C2200      C2201   1.402       .  A
C2201      C2202   1.406       .  A
C2201      H2208   1.084       .  S
C2202      S2204   1.796       .  S
S2203      H2206   1.404       .  S
S2204      H2205   1.406       .  S
C2209      C2210   1.405       .  A
C2209      C2214   1.414       .  A
C2210      C2211   1.398       .  A
C2210      H2219   1.076       .  S
C2211      C2212   1.413       .  A
C2211      S2215   1.801       .  S
C2212      C2213   1.408       .  A
C2213      C2214   1.405       .  A
C2213      H2220   1.084       .  S
C2214      S2216   1.802       .  S
S2215      H2218   1.405       .  S
S2216      H2217   1.403       .  S
C2221      C2222   1.409       .  A
C2221      C2226   1.422       .  A
C2222      C2223   1.405       .  A
C2222      H2231   1.082       .  S
C2223      C2224   1.415       .  A
C2223      S2227   1.804       .  S
C2224      C2225   1.403       .  A
C2225      C2226   1.412       .  A
C2225      H2232   1.083       .  S
C2226      S2228   1.804       .  S
S2227      H2230   1.407       .  S
S2228      H2229   1.406       .  S
C2233      C2234   1.403       .  A
C2233      C2238   1.410       .  A
C2234      C2235   1.406       .  A
C2234      H2243   1.084       .  S
C2235      C2236   1.421       .  A
C2235      S2239   1.802       .  S
C2236      C2237   1.407       .  A
C2237      C2238   1.402       .  A
C2237      H2244   1.081       .  S
C2238      S2240   1.801       .  S
S2239      H2242   1.407       .  S
S2240      H2241   1.407       .  S
C2245      C2246   1.413       .  A
C2245      C2250   1.415       .  A
C2246      C2247   1.415       .  A
C2246      H2255   1.081       .  S
C2247      C2248   1.414       .  A
C2247      S2251   1.795       .  S
C2248      C2249   1.409       .  A
C2249      C2250   1.398       .  A
C2249      H2256   1.084       .  S
C2250      S2252   1.803       .  S
S2251      H2254   1.407       .  S
S2252      H2253   1.393       .  S
C2257      C2258   1.406       .  A
C2257      C2262   1.422       .  A
C2258      C2259   1.401       .  A
C2258      H2267   1.074       .  S
C2259      C2260   1.412       .  A
C2259      S2263   1.804       .  S
C2260      C2261   1.408       .  A
C2261      C2262   1.417       .  A
C2261      H2268   1.084       .  S
C2262      S2264   1.796       .  S
S2263      H2266   1.407       .  S
S2264      H2265   1.403       .  S
C2269      C2270   1.404       .  A
C2269      C2274   1.413       .  A
C2270      C2271   1.405       .  A
C2270      H2279   1.084       .  S
C2271      C2272   1.415       .  A
C2271      S2275   1.793       .  S
C2272      C2273   1.405       .  A
C2273      C2274   1.400       .  A
C2273      H2280   1.078       .  S
C2274      S2276   1.803       .  S
S2275      H2278   1.406       .  S
S2276      H2277   1.407       .  S
C2281      C2282   1.412       .  A
C2281      C2286   1.413       .  A
C2282      C2283   1.410       .  A
C2282      H2291   1.083       .  S
C2283      C2284   1.415       .  A
C2283      S2287   1.804       .  S
C2284      C2285   1.409       .  A
C2285      C2286   1.406       .  A
C2285      H2292   1.074       .  S
C2286      S2288   1.797       .  S
S2287      H2290   1.407       .  S
S2288      H2289   1.406       .  S
C2293      C2294   1.410       .  A
C2293      C2298   1.416       .  A
C2294      C2295   1.407       .  A
C2294      H2303   1.079       .  S
C2295      C2296   1.410       .  A
C2295      S2299   1.797       .  S
C2296      C2297   1.405       .  A
C2297      C2298   1.394       .  A
C2297      H2304   1.085       .  S
C2298      S2300   1.803       .  S
S2299      H2302   1.403       .  S
S2300      H2301   1.390       .  S
C2305      C2306   1.410       .  A
C2305      C2310   1.417       .  A
C2306      C2307   1.407       .  A
C2306      H2315   1.080       .  S
C2307      C2308   1.411       .  A
C2307      S2311   1.804       .  S
C2308      C2309   1.411       .  A
C2309      C2310   1.416       .  A
C2309      H2316   1.083       .  S
C2310      S2312   1.804       .  S
S2311      H2314   1.407       .  S
S2312      H2313   1.407       .  S
C2317      C2318   1.408       .  A
C2317      C2322   1.426       .  A
C2318      C2319   1.407       .  A
C2318      H2327   1.082       .  S
C2319      C2320   1.418       .  A
C2319      S2323   1.809       .  S
C2320      C2321   1.406       .  A
C2321      C2322   1.415       .  A
C2321      H2328   1.083       .  S
C2322      S2324   1.800       .  S
S2323      H2326   1.407       .  S
S2324      H2325   1.402       .  S
C2329      C2330   1.408       .  A
C2329      C2334   1.426       .  A
C2330      C2331   1.404       .  A
C2330      H2339   1.082       .  S
C2331      C2332   1.418       .  A
C2331      S2335   1.802       .  S
C2332      C2333   1.407       .  A
C2333      C2334   1.419       .  A
C2333      H2340   1.083       .  S
C2334      S2336   1.796       .  S
S2335      H2338   1.407       .  S
S2336      H2337   1.407       .  S
C2341      C2342   1.409       .  A
C2341      C2346   1.421       .  A
C2342      C2343   1.411       .  A
C2342      H2351   1.083       .  S
C2343      C2344   1.417       .  A
C2343      S2347   1.802       .  S
C2344      C2345   1.406       .  A
C2345      C2346   1.407       .  A
C2345      H2352   1.084       .  S
C2346      S2348   1.802       .  S
S2347      H2350   1.406       .  S
S2348      H2349   1.400       .  S
C2353      C2354   1.409       .  A
C2353      C2358   1.415       .  A
C2354      C2355   1.411       .  A
C2354      H2363   1.082       .  S
C2355      C2356   1.416       .  A
C2355      S2359   1.805       .  S
C2356      C2357   1.407       .  A
C2357      C2358   1.394       .  A
C2357      H2364   1.084       .  S
C2358      S2360   1.803       .  S
S2359      H2362   1.407       .  S
S2360      H2361   1.402       .  S
C2365      C2366   1.409       .  A
C2365      C2370   1.411       .  A
C2366      C2367   1.403       .  A
C2366      H2375   1.082       .  S
C2367      C2368   1.411       .  A
C2367      S2371   1.801       .  S
C2368      C2369   1.405       .  A
C2369      C2370   1.397       .  A
C2369      H2376   1.084       .  S
C2370      S2372   1.801       .  S
S2371      H2374   1.404       .  S
S2372      H2373   1.406       .  S
C2377      C2378   1.416       .  A
C2377      C2382   1.420       .  A
C2378      C2379   1.407       .  A
C2378      H2387   1.082       .  S
C2379      C2380   1.409       .  A
C2379      S2383   1.801       .  S
C2380      C2381   1.404       .  A
C2381      C2382   1.394       .  A
C2381      H2388   1.084       .  S
C2382      S2384   1.797       .  S
S2383      H2386   1.405       .  S
S2384      H2385   1.407       .  S
C2389      C2390   1.406       .  A
C2389      C2394   1.405       .  A
C2390      C2391   1.412       .  A
C2390      H2399   1.083       .  S
C2391      C2392   1.413       .  A
C2391      S2395   1.804       .  S
C2392      C2393   1.406       .  A
C2393      C2394   1.385       .  A
C2393      H2400   1.075       .  S
C2394      S2396   1.806       .  S
S2395      H2398   1.407       .  S
S2396      H2397   1.406       .  S
C2401      C2402   1.418       .  A
C2401      C2406   1.429       .  A
C2402      C2403   1.411       .  A
C2402      H2411   1.082       .  S
C2403      C2404   1.411       .  A
C2403      S2407   1.800       .  S
C2404      C2405   1.405       .  A
C2405      C2406   1.400       .  A
C2405      H2412   1.083       .  S
C2406      S2408   1.811       .  S
S2407      H2410   1.406       .  S
S2408      H2409   1.406       .  S
C2413      C2414   1.404       .  A
C2413      C2418   1.414       .  A
C2414      C2415   1.384       .  A
C2414      H2423   1.076       .  S
C2415      C2416   1.406       .  A
C2415      S2419   1.806       .  S
C2416      C2417   1.410       .  A
C2417      C2418   1.411       .  A
C2417      H2424   1.083       .  S
C2418      S2420   1.801       .  S
S2419      H2422   1.407       .  S
S2420      H2421   1.406       .  S
C2425      C2426   1.409       .  A
C2425      C2430   1.408       .  A
C2426      C2427   1.421       .  A
C2426      H2435   1.082       .  S
C2427      C2428   1.427       .  A
C2427      S2431   1.805       .  S
C2428      C2429   1.414       .  A
C2429      C2430   1.395       .  A
C2429      H2436   1.082       .  S
C2430      S2432   1.798       .  S
S2431      H2434   1.407       .  S
S2432      H2433   1.405       .  S
C2437      C2438   1.404       .  A
C2437      C2442   1.426       .  A
C2438      C2439   1.403       .  A
C2438      H2447   1.084       .  S
C2439      C2440   1.418       .  A
C2439      S2443   1.809       .  S
C2440      C2441   1.402       .  A
C2441      C2442   1.402       .  A
C2441      H2448   1.084       .  S
C2442      S2444   1.809       .  S
S2443      H2446   1.397       .  S
S2444      H2445   1.393       .  S
C2449      C2450   1.400       .  A
C2449      C2454   1.422       .  A
C2450      C2451   1.401       .  A
C2450      H2459   1.082       .  S
C2451      C2452   1.416       .  A
C2451      S2455   1.799       .  S
C2452      C2453   1.407       .  A
C2453      C2454   1.408       .  A
C2453      H2460   1.084       .  S
C2454      S2456   1.807       .  S
S2455      H2458   1.404       .  S
S2456      H2457   1.397       .  S
C2461      C2462   1.409       .  A
C2461      C2466   1.425       .  A
C2462      C2463   1.413       .  A
C2462      H2471   1.082       .  S
C2463      C2464   1.419       .  A
C2463      S2467   1.802       .  S
C2464      C2465   1.403       .  A
C2465      C2466   1.412       .  A
C2465      H2472   1.084       .  S
C2466      S2468   1.797       .  S
S2467      H2470   1.405       .  S
S2468      H2469   1.397       .  S
C2473      C2474   1.412       .  A
C2473      C2478   1.410       .  A
C2474      C2475   1.417       .  A
C2474      H2483   1.081       .  S
C2475      C2476   1.416       .  A
C2475      S2479   1.805       .  S
C2476      C2477   1.409       .  A
C2477      C2478   1.394       .  A
C2477      H2484   1.084       .  S
C2478      S2480   1.794       .  S
S2479      H2482   1.407       .  S
S2480      H2481   1.407       .  S
C2485      C2486   1.403       .  A
C2485      C2490   1.424       .  A
C2486      C2487   1.404       .  A
C2486      H2495   1.083       .  S
C2487      C2488   1.417       .  A
C2487      S2491   1.802       .  S
C2488      C2489   1.403       .  A
C2489      C2490   1.412       .  A
C2489      H2496   1.083       .  S
C2490      S2492   1.803       .  S
S2491      H2494   1.408       .  S
S2492      H2493   1.407       .  S
C2497      C2498   1.409       .  A
C2497      C2502   1.413       .  A
C2498      C2499   1.406       .  A
C2498      H2507   1.081       .  S
C2499      C2500   1.413       .  A
C2499      S2503   1.801       .  S
C2500      C2501   1.408       .  A
C2501      C2502   1.408       .  A
C2501      H2508   1.084       .  S
C2502      S2504   1.793       .  S
S2503      H2506   1.404       .  S
S2504      H2505   1.405       .  S
C2509      C2510   1.405       .  A
C2509      C2514   1.417       .  A
C2510      C2511   1.417       .  A
C2510      H2519   1.083       .  S
C2511      C2512   1.419       .  A
C2511      S2515   1.803       .  S
C2512      C2513   1.402       .  A
C2513      C2514   1.397       .  A
C2513      H2520   1.081       .  S
C2514      S2516   1.804       .  S
S2515      H2518   1.407       .  S
S2516      H2517   1.407       .  S
C2521      C2522   1.407       .  A
C2521      C2526   1.417       .  A
C2522      C2523   1.415       .  A
C2522      H2531   1.082       .  S
C2523      C2524   1.418       .  A
C2523      S2527   1.798       .  S
C2524      C2525   1.405       .  A
C2525      C2526   1.398       .  A
C2525      H2532   1.081       .  S
C2526      S2528   1.805       .  S
S2527      H2530   1.406       .  S
S2528      H2529   1.407       .  S
C2533      C2534   1.400       .  A
C2533      C2538   1.424       .  A
C2534      C2535   1.393       .  A
C2534      H2543   1.082       .  S
C2535      C2536   1.417       .  A
C2535      S2539   1.805       .  S
C2536      C2537   1.403       .  A
C2537      C2538   1.412       .  A
C2537      H2544   1.083       .  S
C2538      S2540   1.802       .  S
S2539      H2542   1.406       .  S
S2540      H2541   1.399       .  S
C2545      C2546   1.405       .  A
C2545      C2550   1.418       .  A
C2546      C2547   1.403       .  A
C2546      H2555   1.079       .  S
C2547      C2548   1.418       .  A
C2547      S2551   1.804       .  S
C2548      C2549   1.410       .  A
C2549      C2550   1.421       .  A
C2549      H2556   1.082       .  S
C2550      S2552   1.802       .  S
S2551      H2554   1.406       .  S
S2552      H2553   1.407       .  S
C2557      C2558   1.406       .  A
C2557      C2562   1.423       .  A
C2558      C2559   1.404       .  A
C2558      H2567   1.082       .  S
C2559      C2560   1.414       .  A
C2559      S2563   1.803       .  S
C2560      C2561   1.403       .  A
C2561      C2562   1.410       .  A
C2561      H2568   1.084       .  S
C2562      S2564   1.798       .  S
S2563      H2566   1.407       .  S
S2564      H2565   1.389       .  S
C2569      C2570   1.415       .  A
C2569      C2574   1.421       .  A
C2570      C2571   1.412       .  A
C2570      H2579   1.080       .  S
C2571      C2572   1.412       .  A
C2571      S2575   1.801       .  S
C2572      C2573   1.410       .  A
C2573      C2574   1.407       .  A
C2573      H2580   1.085       .  S
C2574      S2576   1.805       .  S
S2575      H2578   1.403       .  S
S2576      H2577   1.389       .  S
C2581      C2582   1.408       .  A
C2581      C2586   1.410       .  A
C2582      C2583   1.413       .  A
C2582      H2591   1.084       .  S
C2583      C2584   1.420       .  A
C2583      S2587   1.797       .  S
C2584      C2585   1.409       .  A
C2585      C2586   1.398       .  A
C2585      H2592   1.074       .  S
C2586      S2588   1.802       .  S
S2587      H2590   1.405       .  S
S2588      H2589   1.405       .  S
