geometry optimzed in LAMMPS
_audit_creation_date              2020-11-30 
_audit_creation_method            'lammps2cif' 
_symmetry_space_group_name_H-M    'P1' 
_symmetry_Int_Tables_number       1 
_symmetry_cell_setting            triclinic 
loop_ 
_symmetry_equiv_pos_as_xyz 
  x,y,z 
_cell_length_a                    33.639913136185456 
_cell_length_b                    33.67093105221797 
_cell_length_c                    33.6009507620038 
_cell_angle_alpha                 90.03830885548437 
_cell_angle_beta                  89.95085751767563 
_cell_angle_gamma                 89.89126398590749 
loop_ 
_atom_site_label 
_atom_site_type_symbol 
_atom_site_fract_x 
_atom_site_fract_y 
_atom_site_fract_z 
_atom_site_charge 
C1          C  0.85723811  0.52047369  0.80369012     0.02380
C2          C  0.82930691  0.54153596  0.82696304     0.02380
C3          C  0.80679450  0.52128149  0.85593244     0.02380
C4          C  0.80742725  0.47938359  0.85717656     0.02380
C5          C  0.83009093  0.45796462  0.82895762     0.02380
C6          C  0.85739644  0.47845524  0.80438003     0.02380
C7          C  0.73613288  0.24488393  0.78675769     0.03220
C8          C  0.75182058  0.27939284  0.80388013    -0.12930
C9          C  0.78546887  0.29763200  0.78746489     0.00720
C10         C  0.80394213  0.28062440  0.75413403    -0.11460
C11         C  0.78822866  0.24622984  0.73651798     0.03210
C12         C  0.75464834  0.22807379  0.75332583    -0.10880
H13         H  0.73626141  0.29353618  0.82837583     0.08810
H14         H  0.82866890  0.29578239  0.74010815     0.06330
H15         H  0.74103001  0.20294118  0.73849438     0.06180
C16         C  0.55577132  0.22579477  0.85911201     0.02380
C17         C  0.57641300  0.20211455  0.83122324     0.02380
C18         C  0.55555563  0.17430957  0.80792583     0.02380
C19         C  0.51360879  0.17492569  0.80764136     0.02380
C20         C  0.49295488  0.20326841  0.83064717     0.02380
C21         C  0.51372461  0.22601267  0.85904283     0.02380
C22         C  0.20932133  0.52192230  0.80997289     0.02380
C23         C  0.23852452  0.54194532  0.83237648     0.02380
C24         C  0.26062119  0.52101626  0.86131947     0.02380
C25         C  0.25921197  0.47899215  0.86209343     0.02380
C26         C  0.23555427  0.45850919  0.83397068     0.02380
C27         C  0.20779616  0.47999525  0.81080839     0.02380
C28         C  0.28333794  0.24910220  0.73385221     0.03220
C29         C  0.31679315  0.23177980  0.75169811    -0.12930
C30         C  0.33360046  0.24872689  0.78596200     0.00720
C31         C  0.31614821  0.28269215  0.80295087    -0.11460
C32         C  0.28283447  0.30042075  0.78505989     0.03210
C33         C  0.26644945  0.28329039  0.75072771    -0.10880
H34         H  0.33144369  0.20688692  0.73733660     0.08810
H35         H  0.33035457  0.29709892  0.82804278     0.06330
H36         H  0.24172723  0.29776717  0.73593293     0.06180
C37         C  0.51258606  0.77681090  0.86236532     0.02380
C38         C  0.55481348  0.77526923  0.86186113     0.02380
C39         C  0.57620486  0.79804903  0.83359003     0.02380
C40         C  0.55620949  0.82721191  0.81114973     0.02380
C41         C  0.51442413  0.82831731  0.81110648     0.02380
C42         C  0.49290227  0.80028074  0.83343575     0.02380
C43         C  0.28912857  0.69750754  0.78100327     0.03220
C44         C  0.32355274  0.71510165  0.79656919    -0.12930
C45         C  0.33891683  0.74983297  0.77952558     0.00720
C46         C  0.32007451  0.76682318  0.74655555    -0.11460
C47         C  0.28620177  0.74896560  0.73030649     0.03210
C48         C  0.27047654  0.71459927  0.74784792    -0.10880
H49         H  0.33911663  0.70105911  0.82107353     0.08810
H50         H  0.33318699  0.79241332  0.73205652     0.06330
H51         H  0.24519697  0.69993113  0.73431935     0.06180
C52         C  0.55814630  0.82380129  0.26062419     0.02380
C53         C  0.57839793  0.79582507  0.23683093     0.02380
C54         C  0.55697458  0.77213589  0.20967643     0.02380
C55         C  0.51499351  0.77159344  0.21130284     0.02380
C56         C  0.49497260  0.79452698  0.24022940     0.02380
C57         C  0.51619075  0.82306043  0.26240105     0.02380
C58         C  0.25887130  0.82883366  0.55413766     0.02380
C59         C  0.23557024  0.80148843  0.57542526     0.02380
C60         C  0.20565372  0.77988029  0.55569608     0.02380
C61         C  0.20363794  0.78058958  0.51348052     0.02380
C62         C  0.23292945  0.80180161  0.49181674     0.02380
C63         C  0.25769989  0.82900056  0.51216819     0.02380
C64         C  0.28707000  0.69449456  0.28542978     0.03220
C65         C  0.32172124  0.71209785  0.27033681    -0.12930
C66         C  0.33813008  0.74542428  0.28905069     0.00720
C67         C  0.31942057  0.76160428  0.32266240    -0.11460
C68         C  0.28466368  0.74435409  0.33788809     0.03210
C69         C  0.26833575  0.71102743  0.31888244    -0.10880
H70         H  0.33704666  0.69861963  0.24532498     0.08810
H71         H  0.33299493  0.78640729  0.33808437     0.06330
H72         H  0.24223132  0.69680418  0.33127787     0.06180
C73         C  0.20591690  0.51982502  0.25823622     0.02380
C74         C  0.23391012  0.53976967  0.23410122     0.02380
C75         C  0.25580560  0.51808740  0.20547121     0.02380
C76         C  0.25518257  0.47616630  0.20602595     0.02380
C77         C  0.23227255  0.45614381  0.23487820     0.02380
C78         C  0.20492774  0.47784356  0.25830447     0.02380
C79         C  0.55509262  0.22577209  0.20851091     0.02380
C80         C  0.57560978  0.20255961  0.23676865     0.02380
C81         C  0.55483322  0.17448150  0.25978949     0.02380
C82         C  0.51289392  0.17470016  0.26002418     0.02380
C83         C  0.49220116  0.20267185  0.23667926     0.02380
C84         C  0.51306331  0.22546969  0.20831598     0.02380
C85         C  0.28290020  0.24672998  0.33366614     0.03220
C86         C  0.31686554  0.23067750  0.31543483    -0.12930
C87         C  0.33315197  0.24861464  0.28153654     0.00720
C88         C  0.31498866  0.28254569  0.26545372    -0.11460
C89         C  0.28097743  0.29877857  0.28344952     0.03210
C90         C  0.26477109  0.28049618  0.31727842    -0.10880
H91         H  0.33211592  0.20580988  0.32915002     0.08810
H92         H  0.32889306  0.29785938  0.24072801     0.06330
H93         H  0.23973240  0.29413432  0.33239318     0.06180
C94         C  0.20705242  0.22353763  0.55479129     0.02380
C95         C  0.23586031  0.20108343  0.57553941     0.02380
C96         C  0.25821320  0.17222502  0.55490575     0.02380
C97         C  0.25747280  0.17136967  0.51284775     0.02380
C98         C  0.23435345  0.19950478  0.49176938     0.02380
C99         C  0.20644491  0.22306060  0.51268559     0.02380
C100        C  0.85826045  0.52099959  0.26149964     0.02380
C101        C  0.82963165  0.54208284  0.23925329     0.02380
C102        C  0.80572585  0.52145376  0.21171075     0.02380
C103        C  0.80574097  0.47942413  0.21152026     0.02380
C104        C  0.82860021  0.45856466  0.23997716     0.02380
C105        C  0.85756946  0.47909370  0.26223276     0.02380
C106        C  0.81188353  0.17025356  0.55698835     0.02380
C107        C  0.83495358  0.19829164  0.57798442     0.02380
C108        C  0.86289590  0.22152998  0.55707181     0.02380
C109        C  0.86267002  0.22188061  0.51505242     0.02380
C110        C  0.83474526  0.19871089  0.49407981     0.02380
C111        C  0.81200160  0.17028248  0.51491933     0.02380
C112        C  0.73269005  0.24857435  0.28639180     0.03220
C113        C  0.74905822  0.28341336  0.27074440    -0.12930
C114        C  0.78321788  0.30013795  0.28768481     0.00720
C115        C  0.80111298  0.28169451  0.32057725    -0.11460
C116        C  0.78420480  0.24734144  0.33710112     0.03210
C117        C  0.75038936  0.23049802  0.31944456    -0.10880
H118        H  0.73407545  0.29859325  0.24655270     0.08810
H119        H  0.82609593  0.29579762  0.33520888     0.06330
H120        H  0.73633798  0.20491125  0.33303011     0.06180
C121        C  0.80945479  0.82591463  0.55480250     0.02380
C122        C  0.83210752  0.79695508  0.57485670     0.02380
C123        C  0.85986183  0.77367579  0.55349769     0.02380
C124        C  0.85932712  0.77420515  0.51131067     0.02380
C125        C  0.83191462  0.79890658  0.49103777     0.02380
C126        C  0.80956231  0.82709060  0.51280540     0.02380
C127        C  0.79149313  0.70479063  0.27954215     0.03220
C128        C  0.75820972  0.72158153  0.26078286    -0.12930
C129        C  0.74017610  0.75579212  0.27642762     0.00720
C130        C  0.75614123  0.77382651  0.31040781    -0.11460
C131        C  0.78929719  0.75727700  0.32955826     0.03210
C132        C  0.80718789  0.72304680  0.31371788    -0.10880
H133        H  0.74417237  0.70603446  0.23628229     0.08810
H134        H  0.74074804  0.79877607  0.32388308     0.06330
H135        H  0.83129389  0.70883386  0.32973119     0.06180
C136        C  0.78644954  0.70207402  0.78484133     0.03220
C137        C  0.75310788  0.71931724  0.80292423    -0.12930
C138        C  0.73577696  0.75373857  0.78688268     0.00720
C139        C  0.75289767  0.77165282  0.75320335    -0.11460
C140        C  0.78619155  0.75430830  0.73481487     0.03210
C141        C  0.80289619  0.71972730  0.75092982    -0.10880
H142        H  0.73883939  0.70429759  0.82762850     0.08810
H143        H  0.73828855  0.79679101  0.73931004     0.06330
H144        H  0.82722536  0.70510294  0.73555596     0.06180
O145        O  0.07593193  0.64226895  0.73792259    -0.72850
O146        O  0.99266943  0.70251222  0.67655164    -0.73840
O147        O  0.99189065  0.64156244  0.73523248    -0.62450
O148        O  0.07660715  0.70387081  0.67934076    -0.70870
O149        O  0.07926789  0.65782325  0.63202442    -0.70420
O150        O  0.99360949  0.59583058  0.68771897    -0.61670
O151        O  0.99459403  0.65654624  0.62927672    -0.74180
O152        O  0.07851038  0.59702717  0.68983368    -0.72960
Cu153      Cu  0.03421939  0.67412425  0.70893995     1.04560
Cu154      Cu  0.03656716  0.62521190  0.65805089     1.04330
C155        C  0.09034425  0.61020932  0.72342110     0.93340
C156        C  0.98049437  0.68900066  0.64315597     0.92480
C157        C  0.97933611  0.60893942  0.72049384     0.84630
C158        C  0.09120958  0.69066903  0.64682708     0.90900
O159        O  0.62972235  0.04146582  0.68895505    -0.72850
O160        O  0.68865115  0.95594114  0.62998869    -0.73840
O161        O  0.62961229  0.95681132  0.68958981    -0.62450
O162        O  0.68881739  0.04057617  0.62918193    -0.70870
O163        O  0.73593810  0.04043841  0.67554834    -0.70420
O164        O  0.67626644  0.95759955  0.73638942    -0.61670
O165        O  0.73590042  0.95677657  0.67618020    -0.74180
O166        O  0.67634278  0.04127499  0.73570955    -0.72960
Cu167      Cu  0.65754394  0.99869575  0.65778409     1.04560
Cu168      Cu  0.70775350  0.99902741  0.70758455     1.04330
C169        C  0.64363377  0.05464819  0.72177287     0.93340
C170        C  0.72160379  0.94305616  0.64378287     0.92480
C171        C  0.64357540  0.94421690  0.72258077     0.84630
C172        C  0.72174337  0.05350262  0.64285701     0.90900
O173        O  0.68864692  0.59291434  0.07641554    -0.72850
O174        O  0.63006192  0.65265413  0.99127565    -0.73840
O175        O  0.68910920  0.59286093  0.99117265    -0.62450
O176        O  0.62957758  0.65254959  0.07582284    -0.70870
O177        O  0.67610235  0.69919777  0.07532788    -0.70420
O178        O  0.73684402  0.63835708  0.99249342    -0.61670
O179        O  0.67744102  0.69832747  0.99133848    -0.74180
O180        O  0.73567458  0.63919750  0.07652549    -0.72960
Cu181      Cu  0.65774382  0.62105647  0.03365552     1.04560
Cu182      Cu  0.70815977  0.67035749  0.03393012     1.04330
C183        C  0.72124243  0.60684157  0.08996029     0.93340
C184        C  0.64442901  0.68518075  0.97803438     0.92480
C185        C  0.72228453  0.60626597  0.97848955     0.84630
C186        C  0.64329145  0.68550011  0.08867265     0.90900
O187        O  0.33626494  0.95810916  0.67382815    -0.72850
O188        O  0.39476338  0.04240835  0.73400310    -0.73840
O189        O  0.33489527  0.04169227  0.67400001    -0.62450
O190        O  0.39610088  0.95878432  0.73387466    -0.70870
O191        O  0.44249356  0.95859947  0.68679444    -0.70420
O192        O  0.38184142  0.04281617  0.62744851    -0.61670
O193        O  0.44118221  0.04343753  0.68692526    -0.74180
O194        O  0.38300683  0.95803074  0.62709789    -0.72960
Cu195      Cu  0.36390207  0.00019249  0.70554887     1.04560
Cu196      Cu  0.41381168  0.00071998  0.65542125     1.04330
C197        C  0.35010737  0.94504726  0.64090509     0.93340
C198        C  0.42713191  0.05625980  0.71986733     0.92480
C199        C  0.34875077  0.05532724  0.64137071     0.84630
C200        C  0.42888707  0.94564949  0.71984361     0.90900
O201        O  0.99250770  0.34728542  0.62742245    -0.72850
O202        O  0.07667979  0.40791650  0.68671454    -0.73840
O203        O  0.07708199  0.34781417  0.62765036    -0.62450
O204        O  0.99199519  0.40737615  0.68605851    -0.70870
O205        O  0.99236029  0.36137600  0.73351253    -0.70420
O206        O  0.07717670  0.30178229  0.67485427    -0.61670
O207        O  0.07615787  0.36208284  0.73413552    -0.74180
O208        O  0.99337221  0.30108266  0.67449464    -0.72960
Cu209      Cu  0.03459170  0.37923956  0.65530242     1.04560
Cu210      Cu  0.03479187  0.32999120  0.70588738     1.04330
C211        C  0.97973200  0.31451647  0.64167880     0.93340
C212        C  0.08955215  0.39459702  0.71992790     0.92480
C213        C  0.09044749  0.31526593  0.64189003     0.84630
C214        C  0.97883253  0.39365536  0.71890326     0.90900
O215        O  0.38064243  0.59813056  0.99209200    -0.72850
O216        O  0.43840145  0.65424492  0.07994314    -0.73840
O217        O  0.38000911  0.59411111  0.07657455    -0.62450
O218        O  0.43908911  0.65891135  0.99546406    -0.70870
O219        O  0.39126687  0.70453486  0.99668508    -0.70420
O220        O  0.33273277  0.64015122  0.07821248    -0.61670
O221        O  0.39166149  0.70099210  0.08078420    -0.74180
O222        O  0.33276387  0.64343443  0.99430534    -0.72960
Cu223      Cu  0.41121965  0.62478082  0.03593095     1.04560
Cu224      Cu  0.36045258  0.67390122  0.03760589     1.04330
C225        C  0.34725803  0.61144573  0.97973590     0.93340
C226        C  0.42428344  0.68658691  0.09388581     0.92480
C227        C  0.34688161  0.60696754  0.09009022     0.84630
C228        C  0.42444063  0.69177896  0.98332109     0.90900
O229        O  0.73424489  0.36129424  0.07623449    -0.72850
O230        O  0.67666909  0.30033907  0.99148086    -0.73840
O231        O  0.73500434  0.36157717  0.99201297    -0.62450
O232        O  0.67593961  0.30015366  0.07561384    -0.70870
O233        O  0.62844065  0.34592941  0.07574479    -0.70420
O234        O  0.68700533  0.40684981  0.99135394    -0.61670
O235        O  0.62909133  0.34606736  0.99095976    -0.74180
O236        O  0.68646948  0.40676325  0.07620783    -0.72960
Cu237      Cu  0.70713880  0.32928066  0.03383518     1.04560
Cu238      Cu  0.65609616  0.37799998  0.03356176     1.04330
C239        C  0.71942767  0.39357411  0.08976604     0.93340
C240        C  0.64371501  0.31350195  0.97791751     0.92480
C241        C  0.72025076  0.39379589  0.97831934     0.84630
C242        C  0.64281462  0.31330175  0.08887186     0.90900
O243        O  0.67535592  0.04209513  0.33251049    -0.72850
O244        O  0.73455056  0.95855551  0.39330925    -0.73840
O245        O  0.67598832  0.95831232  0.33250467    -0.62450
O246        O  0.73427296  0.04227462  0.39331902    -0.70870
O247        O  0.68703884  0.04260727  0.43945339    -0.70420
O248        O  0.62883346  0.95789201  0.37889354    -0.61670
O249        O  0.68714511  0.95829411  0.43926487    -0.74180
O250        O  0.62848428  0.04264074  0.37912091    -0.72960
Cu251      Cu  0.70668050  0.00035083  0.36129357     1.04560
Cu252      Cu  0.65616601  0.00037776  0.41076242     1.04330
C253        C  0.64257027  0.05551328  0.34627333     0.93340
C254        C  0.72020235  0.94519339  0.42587347     0.92480
C255        C  0.64339400  0.94473668  0.34631533     0.84630
C256        C  0.72012537  0.05554215  0.42604793     0.90900
O257        O  0.07718073  0.59749332  0.37959218    -0.72850
O258        O  0.98951871  0.65535075  0.43588506    -0.73840
O259        O  0.99283131  0.59547255  0.37775472    -0.62450
O260        O  0.07318120  0.65797792  0.43819806    -0.70870
O261        O  0.07414495  0.70376217  0.39084568    -0.70420
O262        O  0.99208755  0.64145291  0.33042195    -0.61670
O263        O  0.99034087  0.70218164  0.38925395    -0.74180
O264        O  0.07605792  0.64260051  0.33136109    -0.72960
Cu265      Cu  0.03326300  0.62498520  0.40943402     1.04560
Cu266      Cu  0.03322827  0.67413425  0.35872416     1.04330
C267        C  0.08983628  0.61049697  0.34623301     0.93340
C268        C  0.97657330  0.68801339  0.42167595     0.92480
C269        C  0.97924467  0.60881244  0.34492035     0.84630
C270        C  0.08617952  0.69086047  0.42455687     0.90900
O271        O  0.99063112  0.30068555  0.39654336    -0.72850
O272        O  0.07410360  0.36020220  0.33646323    -0.73840
O273        O  0.07435531  0.30032748  0.39611141    -0.62450
O274        O  0.99023796  0.36064989  0.33668761    -0.70870
O275        O  0.98950054  0.40672921  0.38402650    -0.70420
O276        O  0.07540614  0.34731481  0.44258064    -0.61670
O277        O  0.07443049  0.40689993  0.38311149    -0.74180
O278        O  0.99063208  0.34728285  0.44346077    -0.72960
Cu279      Cu  0.03230142  0.32887134  0.36481529     1.04560
Cu280      Cu  0.03250141  0.37872685  0.41494457     1.04330
C281        C  0.97770714  0.31448767  0.42950114     0.93340
C282        C  0.08751137  0.39290324  0.35024412     0.92480
C283        C  0.08810611  0.31433857  0.42861219     0.84630
C284        C  0.97653021  0.39305677  0.35101690     0.90900
O285        O  0.44208544  0.04209667  0.38106737    -0.72850
O286        O  0.38344229  0.95669036  0.44024041    -0.73840
O287        O  0.44289224  0.95731919  0.38078471    -0.62450
O288        O  0.38248034  0.04126412  0.44058746    -0.70870
O289        O  0.33632994  0.04138791  0.39344160    -0.70420
O290        O  0.39594543  0.95681801  0.33443622    -0.61670
O291        O  0.33612948  0.95780542  0.39411406    -0.74180
O292        O  0.39624777  0.04057379  0.33351642    -0.72960
Cu293      Cu  0.41440384  0.99936199  0.41230497     1.04560
Cu294      Cu  0.36457228  0.99914778  0.36223897     1.04330
C295        C  0.42849546  0.05449404  0.34782214     0.93340
C296        C  0.35033612  0.94419045  0.42657766     0.92480
C297        C  0.42884342  0.94373434  0.34818426     0.84630
C298        C  0.34976750  0.05449425  0.42648418     0.90900
O299        O  0.39250294  0.29669280  0.07553396    -0.72850
O300        O  0.33300679  0.35715948  0.99174245    -0.73840
O301        O  0.39319988  0.29744399  0.99164914    -0.62450
O302        O  0.33233321  0.35662529  0.07573023    -0.70870
O303        O  0.37935608  0.40285533  0.07743061    -0.70420
O304        O  0.43903775  0.34489843  0.99158971    -0.61670
O305        O  0.37937305  0.40412441  0.99270157    -0.74180
O306        O  0.43886180  0.34365731  0.07636087    -0.72960
Cu307      Cu  0.36112334  0.32532699  0.03364693     1.04560
Cu308      Cu  0.41080878  0.37550762  0.03453920     1.04330
C309        C  0.42504053  0.31071843  0.08904659     0.93340
C310        C  0.34680327  0.39016027  0.97920485     0.92480
C311        C  0.42562682  0.31198196  0.97834488     0.84630
C312        C  0.34626699  0.38899561  0.08980372     0.90900
C313        C  0.82169708  0.79154317  0.44843949    -0.05380
C314        C  0.78352017  0.77708892  0.44003020    -0.32810
C315        C  0.77262662  0.76687372  0.40132400     0.36440
C316        C  0.80010837  0.77083082  0.36998627    -0.05730
C317        C  0.83816923  0.78584373  0.37800452    -0.32700
C318        C  0.84882032  0.79701583  0.41688025     0.36350
H319        H  0.76233508  0.77268065  0.46393666     0.16720
O320        O  0.73535468  0.75182622  0.39458924    -0.60200
H321        H  0.85953212  0.78904490  0.35408285     0.16740
O322        O  0.88582695  0.81251959  0.42384577    -0.60300
H323        H  0.88546373  0.83937261  0.41176575     0.43730
H324        H  0.73846127  0.72257669  0.39623781     0.43690
C325        C  0.82212835  0.78638985  0.61662346    -0.05380
C326        C  0.83078773  0.81202981  0.64847124    -0.32810
C327        C  0.81858684  0.80251477  0.68730696     0.36440
C328        C  0.79840317  0.76667279  0.69451490    -0.05730
C329        C  0.78991498  0.74121352  0.66268497    -0.32700
C330        C  0.80141902  0.75089803  0.62397521     0.36350
H331        H  0.84662134  0.83948443  0.64311087     0.16720
O332        O  0.82723442  0.82783587  0.71804840    -0.60200
H333        H  0.77386104  0.71381163  0.66787533     0.16740
O334        O  0.79064822  0.72653334  0.59303180    -0.60300
H335        H  0.80412436  0.70081488  0.59807728     0.43730
H336        H  0.80459636  0.84672184  0.71907538     0.43690
C337        C  0.78644703  0.85783724  0.49113863    -0.05380
C338        C  0.74483288  0.85825318  0.49329309    -0.32810
C339        C  0.72281297  0.88690375  0.47271428     0.36440
C340        C  0.74242396  0.91480919  0.44838464    -0.05730
C341        C  0.78405388  0.91377193  0.44566134    -0.32700
C342        C  0.80605090  0.88593125  0.46724644     0.36350
H343        H  0.72936316  0.83600939  0.51061203     0.16720
O344        O  0.68212005  0.88624133  0.47518908    -0.60200
H345        H  0.79969535  0.93508296  0.42729377     0.16740
O346        O  0.84673313  0.88603219  0.46452015    -0.60300
H347        H  0.85566620  0.90764076  0.48242346     0.43730
H348        H  0.67564768  0.89983586  0.50058463     0.43690
C349        C  0.94636997  0.71013240  0.44373856    -0.05380
C350        C  0.90725541  0.69606474  0.44526190    -0.32810
C351        C  0.87829024  0.71674069  0.46697947     0.36440
C352        C  0.88898574  0.75103684  0.48844156    -0.05730
C353        C  0.92834427  0.76462480  0.48726124    -0.32700
C354        C  0.95693271  0.74454993  0.46479031     0.36350
H355        H  0.89916354  0.66922772  0.42941641     0.16720
O356        O  0.84009994  0.70251099  0.46856629    -0.60200
H357        H  0.93668594  0.79118867  0.50343170     0.16740
O358        O  0.99516138  0.75863532  0.46364391    -0.60300
H359        H  0.00934318  0.74437821  0.48521778     0.43730
H360        H  0.82997792  0.70371927  0.44087621     0.43690
C361        C  0.94973649  0.71078320  0.62037378    -0.05380
C362        C  0.92316789  0.68960843  0.59613740    -0.32810
C363        C  0.89363590  0.70934702  0.57418972     0.36440
C364        C  0.89072305  0.75103980  0.57597133    -0.05730
C365        C  0.91733045  0.77218468  0.60015106    -0.32700
C366        C  0.94639492  0.75245251  0.62247441     0.36350
H367        H  0.92478337  0.65749226  0.59476241     0.16720
O368        O  0.86646788  0.68769828  0.55283229    -0.60200
H369        H  0.91550586  0.80428958  0.60169043     0.16740
O370        O  0.97232393  0.77433000  0.64504283    -0.60300
H371        H  0.95785510  0.78007697  0.67013141     0.43730
H372        H  0.88212912  0.66993734  0.53519620     0.43690
C373        C  0.78672385  0.85578333  0.57792459    -0.05380
C374        C  0.74818503  0.84723775  0.59130773    -0.32810
C375        C  0.72637904  0.87572772  0.61250119     0.36440
C376        C  0.74376261  0.91256937  0.62172986    -0.05730
C377        C  0.78270955  0.92059509  0.60936721    -0.32700
C378        C  0.80397170  0.89267729  0.58699428     0.36350
H379        H  0.73496514  0.81862033  0.58491926     0.16720
O380        O  0.68873090  0.86684294  0.62535988    -0.60200
H381        H  0.79633204  0.94889254  0.61637437     0.16740
O382        O  0.84192913  0.90120039  0.57480541    -0.60300
H383        H  0.83877369  0.91983949  0.55219886     0.43730
H384        H  0.67108176  0.87352152  0.60269893     0.43690
C385        C  0.82306198  0.20949303  0.45271959    -0.05380
C386        C  0.78531022  0.22640261  0.44732713    -0.32810
C387        C  0.77228391  0.23790004  0.40967211     0.36440
C388        C  0.79739970  0.23329679  0.37652783    -0.05730
C389        C  0.83523096  0.21646824  0.38158959    -0.32700
C390        C  0.84816013  0.20430987  0.41948224     0.36350
H391        H  0.76587192  0.23096433  0.47267605     0.16720
O392        O  0.73553678  0.25520987  0.40573555    -0.60200
H393        H  0.85462959  0.21259624  0.35612035     0.16740
O394        O  0.88454443  0.18631916  0.42359669    -0.60300
H395        H  0.90431290  0.20560300  0.41334752     0.43730
H396        H  0.71647154  0.23279258  0.40488188     0.43690
C397        C  0.74285014  0.08540832  0.44877930    -0.05380
C398        C  0.78451952  0.08505029  0.44661602    -0.32810
C399        C  0.80713357  0.11241689  0.46821483     0.36440
C400        C  0.78810128  0.14088921  0.49222634    -0.05730
C401        C  0.74644831  0.14156344  0.49426906    -0.32700
C402        C  0.72380326  0.11396157  0.47293185     0.36350
H403        H  0.79972010  0.06296357  0.42870128     0.16720
O404        O  0.84787815  0.11013964  0.46721176    -0.60200
H405        H  0.73150400  0.16374357  0.51225549     0.16740
O406        O  0.68314294  0.11548644  0.47554244    -0.60300
H407        H  0.67461028  0.13281357  0.45325997     0.43730
H408        H  0.85548748  0.11517650  0.43915678     0.43690
C409        C  0.89213424  0.24605935  0.49326333    -0.05380
C410        C  0.88129889  0.28304998  0.47749861    -0.32810
C411        C  0.90935568  0.30620703  0.45741184     0.36440
C412        C  0.94821362  0.29175213  0.45195330    -0.05730
C413        C  0.95904309  0.25484870  0.46782235    -0.32700
C414        C  0.93138310  0.23223755  0.48891701     0.36350
H415        H  0.85118952  0.29397290  0.48107271     0.16720
O416        O  0.89826596  0.34226167  0.44209856    -0.60200
H417        H  0.98908206  0.24374674  0.46409355     0.16740
O418        O  0.94283190  0.19664868  0.50517220    -0.60300
H419        H  0.93758262  0.17652038  0.48429671     0.43730
H420        H  0.90298589  0.36161540  0.46383753     0.43690
C421        C  0.74395459  0.08343562  0.62050543    -0.05380
C422        C  0.78045805  0.07302515  0.60333404    -0.32810
C423        C  0.80243214  0.10112450  0.58215232     0.36440
C424        C  0.78830053  0.14033098  0.57883758    -0.05730
C425        C  0.75174794  0.15077217  0.59604059    -0.32700
C426        C  0.72929438  0.12235039  0.61642918     0.36350
H427        H  0.79174469  0.04298450  0.60613942     0.16720
O428        O  0.83771099  0.09013292  0.56480097    -0.60200
H429        H  0.74065622  0.18088803  0.59343631     0.16740
O430        O  0.69380438  0.13311687  0.63345476    -0.60300
H431        H  0.67356293  0.12861110  0.61250264     0.43730
H432        H  0.85841013  0.09595437  0.58494931     0.43690
C433        C  0.89227836  0.24567068  0.57945346    -0.05380
C434        C  0.89055058  0.28727651  0.57819471    -0.32810
C435        C  0.91913214  0.31020320  0.59788239     0.36440
C436        C  0.94936657  0.29145878  0.62004595    -0.05730
C437        C  0.95063036  0.24982534  0.62167470    -0.32700
C438        C  0.92249414  0.22694126  0.60139739     0.36350
H439        H  0.86704306  0.30194719  0.56177527     0.16720
O440        O  0.91638335  0.35082244  0.59652013    -0.60200
H441        H  0.97399949  0.23491274  0.63810054     0.16740
O442        O  0.92571077  0.18629456  0.60153600    -0.60300
H443        H  0.92144669  0.17812440  0.62955327     0.43730
H444        H  0.92852574  0.35848038  0.57074083     0.43690
C445        C  0.81744699  0.41724174  0.25089466    -0.05380
C446        C  0.84361172  0.38519472  0.24499942    -0.32810
C447        C  0.83322734  0.34683551  0.25745718     0.36440
C448        C  0.79589910  0.34009652  0.27502181    -0.05730
C449        C  0.76980952  0.37205210  0.28083625    -0.32700
C450        C  0.78042181  0.41041989  0.26919978     0.36350
H451        H  0.87209734  0.38985727  0.23089506     0.16720
O452        O  0.85919577  0.31598250  0.25141759    -0.60200
H453        H  0.74127135  0.36728249  0.29503685     0.16740
O454        O  0.75530938  0.44155172  0.27751430    -0.60300
H455        H  0.73109950  0.43680853  0.26139880     0.43730
H456        H  0.87738662  0.31658581  0.27462179     0.43690
C457        C  0.82149691  0.58448972  0.24896800    -0.05380
C458        C  0.82909904  0.61507136  0.22159694    -0.32810
C459        C  0.81977150  0.65466297  0.23111498     0.36440
C460        C  0.80398341  0.66402578  0.26882320    -0.05730
C461        C  0.79710561  0.63347518  0.29625446    -0.32700
C462        C  0.80511863  0.59402391  0.28636947     0.36350
H463        H  0.84188256  0.60819978  0.19281335     0.16720
O464        O  0.82681935  0.68405354  0.20380083    -0.60200
H465        H  0.78420986  0.64016355  0.32506923     0.16740
O466        O  0.79630453  0.56475935  0.31334834    -0.60300
H467        H  0.76970529  0.55481349  0.30551393     0.43730
H468        H  0.80344741  0.68372226  0.18583344     0.43690
C469        C  0.74085634  0.41572614  0.12115307    -0.05380
C470        C  0.78239448  0.41239100  0.12377719    -0.32810
C471        C  0.80359744  0.43296005  0.15309248     0.36440
C472        C  0.78325888  0.45694176  0.18074208    -0.05730
C473        C  0.74174872  0.45996964  0.17846559    -0.32700
C474        C  0.72056799  0.44007655  0.14868201     0.36350
H475        H  0.79864390  0.39433326  0.10256379     0.16720
O476        O  0.84436227  0.43098780  0.15348485    -0.60200
H477        H  0.72567007  0.47773720  0.19992157     0.16740
O478        O  0.67994891  0.44350958  0.14768959    -0.60300
H479        H  0.67465325  0.46897314  0.13382827     0.43730
H480        H  0.85094662  0.40311989  0.16039032     0.43690
C481        C  0.94582098  0.41503613  0.32883502    -0.05380
C482        C  0.95227980  0.42418287  0.28863335    -0.32810
C483        C  0.92382389  0.44546748  0.26695676     0.36440
C484        C  0.88789855  0.45679670  0.28516040    -0.05730
C485        C  0.88108251  0.44714032  0.32514052    -0.32700
C486        C  0.91007699  0.42688913  0.34719272     0.36350
H487        H  0.97981151  0.41550123  0.27426116     0.16720
O488        O  0.93153267  0.45578621  0.22821279    -0.60200
H489        H  0.85338138  0.45561869  0.33928311     0.16740
O490        O  0.90309424  0.41836086  0.38646980    -0.60300
H491        H  0.88372911  0.39620121  0.38617184     0.43730
H492        H  0.92724426  0.43127777  0.21244541     0.43690
C493        C  0.78335062  0.54376615  0.18113379    -0.05380
C494        C  0.80068214  0.54881337  0.14357246    -0.32810
C495        C  0.78089560  0.57010444  0.11394345     0.36440
C496        C  0.74265727  0.58528366  0.12122431    -0.05730
C497        C  0.72521081  0.58032712  0.15881466    -0.32700
C498        C  0.74565056  0.56011816  0.18904568     0.36350
H499        H  0.82986296  0.53654209  0.13745159     0.16720
O500        O  0.79864950  0.57498175  0.07756627    -0.60200
H501        H  0.69607634  0.59272162  0.16488747     0.16740
O502        O  0.72927808  0.55721999  0.22637157    -0.60300
H503        H  0.70463447  0.54143914  0.22314946     0.43730
H504        H  0.81494705  0.59935453  0.08017879     0.43690
C505        C  0.94819226  0.58639066  0.32384827    -0.05380
C506        C  0.94755130  0.58600720  0.28210627    -0.32810
C507        C  0.91865801  0.56429661  0.26168540     0.36440
C508        C  0.88951000  0.54326098  0.28301334    -0.05730
C509        C  0.88964079  0.54423297  0.32466408    -0.32700
C510        C  0.91880303  0.56544666  0.34514016     0.36350
H511        H  0.96989053  0.60200112  0.26531717     0.16720
O512        O  0.91895057  0.56390894  0.22086497    -0.60200
H513        H  0.86675754  0.52894215  0.34131706     0.16740
O514        O  0.91779351  0.56621049  0.38594532    -0.60300
H515        H  0.90209233  0.59020587  0.39287588     0.43730
H516        H  0.93461268  0.54004858  0.21344304     0.43690
C517        C  0.17758116  0.24738459  0.57756844    -0.05380
C518        C  0.17650442  0.28883081  0.57366507    -0.32810
C519        C  0.14819156  0.31138868  0.59421966     0.36440
C520        C  0.12092644  0.29253199  0.61986184    -0.05730
C521        C  0.12233720  0.25106583  0.62398957    -0.32700
C522        C  0.15024236  0.22848652  0.60290765     0.36350
H523        H  0.19765969  0.30373940  0.55454119     0.16720
O524        O  0.14829350  0.35190435  0.59003263    -0.60200
H525        H  0.10116169  0.23594441  0.64296393     0.16740
O526        O  0.14942808  0.18780794  0.60559761    -0.60300
H527        H  0.15645857  0.18152970  0.63354672     0.43730
H528        H  0.13406506  0.35711300  0.56471877     0.43690
C529        C  0.28156885  0.14240524  0.57736352    -0.05380
C530        C  0.32026645  0.15115964  0.59001207    -0.32810
C531        C  0.34283642  0.12257583  0.61014925     0.36440
C532        C  0.32601439  0.08548837  0.61942248    -0.05730
C533        C  0.28695328  0.07713342  0.60760705    -0.32700
C534        C  0.26492221  0.10515201  0.58618490     0.36350
H535        H  0.33309576  0.17996707  0.58369461     0.16720
O536        O  0.38079970  0.13156294  0.62180271    -0.60200
H537        H  0.27382414  0.04855273  0.61437828     0.16740
O538        O  0.22731440  0.09580282  0.57356316    -0.60300
H539        H  0.20933913  0.10533733  0.59494325     0.43730
H540        H  0.39777283  0.12499126  0.59856038     0.43690
C541        C  0.32680495  0.08472017  0.44864969    -0.05380
C542        C  0.28516025  0.08485941  0.44586355    -0.32810
C543        C  0.26242585  0.11280224  0.46679476     0.36440
C544        C  0.28133724  0.14151876  0.49050674    -0.05730
C545        C  0.32297582  0.14195713  0.49268480    -0.32700
C546        C  0.34568514  0.11335040  0.47267337     0.36350
H547        H  0.27007863  0.06272645  0.42800302     0.16720
O548        O  0.22169190  0.11099557  0.46524680    -0.60200
H549        H  0.33792796  0.16464285  0.50987990     0.16740
O550        O  0.38632585  0.11457282  0.47560976    -0.60300
H551        H  0.39263350  0.10124019  0.50115854     0.43730
H552        H  0.21456718  0.11638024  0.43713527     0.43690
C553        C  0.17621437  0.24670840  0.49087029    -0.05380
C554        C  0.18663963  0.28275522  0.47274080    -0.32810
C555        C  0.15788526  0.30553062  0.45296564     0.36440
C556        C  0.11850809  0.29178851  0.45040103    -0.05730
C557        C  0.10812261  0.25574444  0.46839815    -0.32700
C558        C  0.13659509  0.23343170  0.48892831     0.36350
H559        H  0.21700943  0.29329523  0.47426052     0.16720
O560        O  0.16873544  0.34049941  0.43515602    -0.60200
H561        H  0.07780025  0.24505146  0.46672670     0.16740
O562        O  0.12553706  0.19862499  0.50697155    -0.60300
H563        H  0.13101536  0.17754266  0.48708595     0.43730
H564        H  0.16525596  0.36109360  0.45598715     0.43690
C565        C  0.27044134  0.23252156  0.37331519    -0.05380
C566        C  0.23242298  0.21644872  0.37917711    -0.32810
C567        C  0.21992404  0.20470139  0.41735246     0.36440
C568        C  0.24564258  0.20954422  0.45009922    -0.05730
C569        C  0.28363903  0.22553323  0.44388917    -0.32700
C570        C  0.29613061  0.23684885  0.40600332     0.36350
H571        H  0.21250089  0.21292573  0.35411002     0.16720
O572        O  0.18330396  0.18748754  0.42223261    -0.60200
H573        H  0.30361384  0.22974114  0.46883021     0.16740
O574        O  0.33331280  0.25287251  0.40131650    -0.60300
H575        H  0.32941789  0.28201217  0.40327444     0.43730
H576        H  0.16368447  0.20720940  0.41243178     0.43690
C577        C  0.45062934  0.21330654  0.24681305    -0.05380
C578        C  0.44466459  0.24538021  0.27273928    -0.32810
C579        C  0.40640850  0.25735311  0.28334236     0.36440
C580        C  0.37329018  0.23689915  0.26834291    -0.05730
C581        C  0.37900082  0.20472636  0.24231974    -0.32700
C582        C  0.41762611  0.19289164  0.23137683     0.36350
H583        H  0.46997119  0.26118017  0.28484473     0.16720
O584        O  0.40159872  0.28845256  0.30931193    -0.60200
H585        H  0.35358825  0.18883340  0.23063621     0.16740
O586        O  0.42290473  0.16209021  0.20517197    -0.60300
H587        H  0.41607077  0.13777509  0.22031448     0.43730
H588        H  0.40013374  0.31247044  0.29230423     0.43690
C589        C  0.61653596  0.21373459  0.24835238    -0.05380
C590        C  0.64968513  0.19180526  0.23556347    -0.32810
C591        C  0.68799038  0.20247057  0.24812581     0.36440
C592        C  0.69314845  0.23567437  0.27301978    -0.05730
C593        C  0.65996469  0.25724458  0.28591771    -0.32700
C594        C  0.62180222  0.24636449  0.27392070     0.36350
H595        H  0.64578046  0.16644210  0.21612633     0.16720
O596        O  0.72017143  0.18083252  0.23548368    -0.60200
H597        H  0.66369506  0.28240384  0.30570344     0.16740
O598        O  0.58945135  0.26655873  0.28862665    -0.60300
H599        H  0.59199659  0.29411918  0.27864435     0.43730
H600        H  0.72380138  0.15986923  0.25588529     0.43690
C601        C  0.49056451  0.24741752  0.17754425    -0.05380
C602        C  0.47422789  0.28469122  0.18632475    -0.32810
C603        C  0.45275444  0.30550781  0.15754107     0.36440
C604        C  0.44689986  0.28880376  0.11969575    -0.05730
C605        C  0.46233406  0.25106970  0.11113622    -0.32700
C606        C  0.48447002  0.23050183  0.13975990     0.36350
H607        H  0.47824977  0.29772380  0.21551064     0.16720
O608        O  0.43676110  0.34175754  0.16690838    -0.60200
H609        H  0.45774984  0.23788684  0.08207047     0.16740
O610        O  0.49939441  0.19359435  0.13094693    -0.60300
H611        H  0.52490426  0.19861476  0.11704303     0.43730
H612        H  0.41132218  0.33549727  0.18043081     0.43690
C613        C  0.45023368  0.08508545  0.32558605    -0.05380
C614        C  0.45841505  0.12175986  0.34356894    -0.32810
C615        C  0.47779649  0.15178800  0.32219191     0.36440
C616        C  0.49071366  0.14446962  0.28305307    -0.05730
C617        C  0.48297909  0.10760222  0.26531066    -0.32700
C618        C  0.46246686  0.07812277  0.28615800     0.36350
H619        H  0.44888112  0.12744366  0.37386083     0.16720
O620        O  0.48443378  0.18795366  0.33976144    -0.60200
H621        H  0.49278233  0.10181394  0.23512424     0.16740
O622        O  0.45488349  0.04245299  0.26795569    -0.60300
H623        H  0.47744213  0.02498144  0.27542740     0.43730
H624        H  0.45777777  0.20007945  0.34332552     0.43690
C625        C  0.57729785  0.14434401  0.28267369    -0.05380
C626        C  0.59247476  0.11117075  0.26251050    -0.32810
C627        C  0.61450451  0.08237347  0.28281133     0.36440
C628        C  0.62065161  0.08609742  0.32404928    -0.05730
C629        C  0.60552852  0.11934847  0.34422538    -0.32700
C630        C  0.58427673  0.14874359  0.32366477     0.36350
H631        H  0.58730801  0.10776014  0.23086141     0.16720
O632        O  0.62848001  0.04988391  0.26246811    -0.60200
H633        H  0.61085742  0.12288026  0.37583532     0.16740
O634        O  0.57198719  0.18245243  0.34316854    -0.60300
H635        H  0.55594906  0.17327232  0.36615932     0.43730
H636        H  0.65390929  0.05860902  0.25037836     0.43690
C637        C  0.57803450  0.24900088  0.17859738    -0.05380
C638        C  0.60196880  0.22854924  0.15115671    -0.32810
C639        C  0.62344426  0.24904296  0.12201413     0.36440
C640        C  0.62094001  0.29078868  0.11969777    -0.05730
C641        C  0.59713838  0.31124734  0.14730908    -0.32700
C642        C  0.57653051  0.29075508  0.17719912     0.36350
H643        H  0.60362956  0.19641829  0.15211452     0.16720
O644        O  0.64615916  0.22786655  0.09550945    -0.60200
H645        H  0.59524043  0.34336179  0.14635907     0.16740
O646        O  0.55517989  0.31168157  0.20500766    -0.60300
H647        H  0.57477539  0.32839946  0.21928473     0.43730
H648        H  0.62844928  0.22272642  0.07249763     0.43690
C649        C  0.24262369  0.41476141  0.24659164    -0.05380
C650        C  0.26336173  0.40947832  0.28241000    -0.32810
C651        C  0.27510930  0.37170580  0.29488029     0.36440
C652        C  0.26667017  0.33837639  0.27117512    -0.05730
C653        C  0.24558551  0.34331698  0.23551573    -0.32700
C654        C  0.23329758  0.38133587  0.22315720     0.36350
H655        H  0.27078788  0.43497361  0.30064528     0.16720
O656        O  0.29619103  0.36774097  0.32959032    -0.60200
H657        H  0.23857177  0.31767564  0.21735491     0.16740
O658        O  0.21105320  0.38548113  0.18919466    -0.60300
H659        H  0.22690033  0.37321924  0.16750460     0.43730
H660        H  0.27583197  0.36588668  0.35087071     0.43690
C661        C  0.11795188  0.41475520  0.32748771    -0.05380
C662        C  0.11770799  0.41252636  0.28577856    -0.32810
C663        C  0.14557216  0.43341758  0.26324288     0.36440
C664        C  0.17497911  0.45612969  0.28231037    -0.05730
C665        C  0.17574960  0.45796414  0.32399156    -0.32700
C666        C  0.14729109  0.43773222  0.34661553     0.36350
H667        H  0.09527049  0.39520668  0.27052951     0.16720
O668        O  0.14369516  0.43169418  0.22250703    -0.60200
H669        H  0.19862981  0.47487644  0.33897417     0.16740
O670        O  0.14882544  0.44009553  0.38733091    -0.60300
H671        H  0.16664795  0.41813144  0.39564491     0.43730
H672        H  0.12849100  0.45563360  0.21446026     0.43690
C673        C  0.27855862  0.45338351  0.17646895    -0.05380
C674        C  0.31787297  0.44256180  0.18482965    -0.32810
C675        C  0.34063899  0.42203453  0.15650777     0.36440
C676        C  0.32342487  0.41096232  0.11998945    -0.05730
C677        C  0.28389525  0.42144685  0.11190698    -0.32700
C678        C  0.26180148  0.44342322  0.13950427     0.36350
H679        H  0.33101777  0.45049103  0.21316351     0.16720
O680        O  0.37961404  0.41301110  0.16452331    -0.60200
H681        H  0.27046775  0.41337856  0.08373636     0.16740
O682        O  0.22348997  0.45420454  0.13061376    -0.60300
H683        H  0.22583368  0.47959589  0.11588191     0.43730
H684        H  0.37919584  0.39714658  0.18937375     0.43690
C685        C  0.27949035  0.53981457  0.17516957    -0.05380
C686        C  0.32115196  0.53962235  0.17685196    -0.32810
C687        C  0.34359681  0.56062421  0.14879146     0.36440
C688        C  0.32429094  0.58325970  0.11928289    -0.05730
C689        C  0.28259291  0.58348274  0.11777430    -0.32700
C690        C  0.26021128  0.56177757  0.14531846     0.36350
H691        H  0.33628092  0.52358214  0.20030423     0.16720
O692        O  0.38426328  0.56037534  0.15163062    -0.60200
H693        H  0.26727782  0.60018370  0.09486294     0.16740
O694        O  0.21953072  0.56107353  0.14225667    -0.60300
H695        H  0.21065324  0.58870996  0.14722493     0.43730
H696        H  0.39281677  0.53538433  0.13850674     0.43690
C697        C  0.17650578  0.54275016  0.28187989    -0.05380
C698        C  0.13827957  0.54836724  0.26624104    -0.32810
C699        C  0.11017455  0.57121627  0.28671922     0.36440
C700        C  0.11968053  0.58751541  0.32404041    -0.05730
C701        C  0.15749240  0.58094283  0.34034399    -0.32700
C702        C  0.18617386  0.55923198  0.31913282     0.36350
H703        H  0.13054774  0.53557858  0.23767888     0.16720
O704        O  0.07299694  0.57630296  0.27074390    -0.60200
H705        H  0.16494778  0.59318346  0.36921633     0.16740
O706        O  0.22317832  0.55343170  0.33526165    -0.60300
H707        H  0.23658546  0.57958714  0.33364196     0.43730
H708        H  0.07526650  0.59983539  0.25316423     0.43690
C709        C  0.27362160  0.65582709  0.26979574    -0.05380
C710        C  0.23528809  0.65154606  0.25390575    -0.32810
C711        C  0.22201019  0.61437844  0.24031941     0.36440
C712        C  0.24678868  0.58081521  0.24420864    -0.05730
C713        C  0.28510239  0.58542376  0.26002044    -0.32700
C714        C  0.29863657  0.62245508  0.27253970     0.36350
H715        H  0.21577087  0.67709178  0.25183330     0.16720
O716        O  0.18473087  0.61092673  0.22418345    -0.60200
H717        H  0.30435246  0.55981945  0.26354383     0.16740
O718        O  0.33599969  0.62552557  0.28858412    -0.60300
H719        H  0.33223622  0.62229754  0.31768036     0.43730
H720        H  0.18458140  0.62826990  0.20035022     0.43690
C721        C  0.24350478  0.78809398  0.45085830    -0.05380
C722        C  0.25574446  0.74840619  0.44645068    -0.32810
C723        C  0.26746401  0.73346501  0.40949918     0.36440
C724        C  0.26827537  0.75859701  0.37613807    -0.05730
C725        C  0.25559470  0.79811426  0.38008508    -0.32700
C726        C  0.24282282  0.81295129  0.41707914     0.36350
H727        H  0.25671165  0.72892255  0.47210257     0.16720
O728        O  0.28022408  0.69483355  0.40673295    -0.60200
H729        H  0.25558482  0.81749557  0.35435337     0.16740
O730        O  0.22824814  0.85096857  0.41963272    -0.60300
H731        H  0.24879569  0.86840826  0.40770728     0.43730
H732        H  0.25562604  0.67867277  0.40561388     0.43690
C733        C  0.11542191  0.71391252  0.44800926    -0.05380
C734        C  0.12032318  0.75474236  0.44101178    -0.32810
C735        C  0.14815355  0.77692581  0.46280405     0.36440
C736        C  0.17242352  0.75802867  0.49133895    -0.05730
C737        C  0.16818275  0.71707371  0.49726947    -0.32700
C738        C  0.13897499  0.69545177  0.47736815     0.36350
H739        H  0.10210233  0.76971781  0.41906330     0.16720
O740        O  0.15085305  0.81719144  0.45687369    -0.60200
H741        H  0.18822214  0.70131710  0.51670146     0.16740
O742        O  0.13406676  0.65612639  0.48675226    -0.60300
H743        H  0.15329879  0.64160703  0.46972150     0.43730
H744        H  0.15639892  0.82078429  0.42810654     0.43690
C745        C  0.28184830  0.85829239  0.49006430    -0.05380
C746        C  0.31963124  0.84803112  0.47567271    -0.32810
C747        C  0.34283539  0.87617849  0.45565747     0.36440
C748        C  0.32761107  0.91451251  0.44886561    -0.05730
C749        C  0.28975106  0.92460256  0.46298104    -0.32700
C750        C  0.26716466  0.89699011  0.48422980     0.36350
H751        H  0.33103558  0.81824473  0.48004357     0.16720
O752        O  0.37956653  0.86556757  0.44141558    -0.60200
H753        H  0.27780437  0.95405754  0.45774048     0.16740
O754        O  0.22983216  0.90715580  0.49730539    -0.60300
H755        H  0.23394694  0.92775189  0.51799248     0.43730
H756        H  0.39817975  0.87060482  0.46371612     0.43690
C757        C  0.17661929  0.75717789  0.58000522    -0.05380
C758        C  0.18500858  0.71794896  0.59140671    -0.32810
C759        C  0.15741541  0.69599803  0.61336300     0.36440
C760        C  0.12164843  0.71383252  0.62572921    -0.05730
C761        C  0.11446799  0.75390120  0.61674120    -0.32700
C762        C  0.14151627  0.77543563  0.59358131     0.36350
H763        H  0.21262441  0.70401215  0.58237954     0.16720
O764        O  0.16563360  0.65717304  0.62262146    -0.60200
H765        H  0.08725322  0.76810301  0.62660844     0.16740
O766        O  0.13370107  0.81443301  0.58475809    -0.60300
H767        H  0.12056032  0.81390660  0.55835760     0.43730
H768        H  0.17941176  0.65817542  0.64868702     0.43690
C769        C  0.32727210  0.91533012  0.61837174    -0.05380
C770        C  0.34623208  0.88156683  0.60270007    -0.32810
C771        C  0.32436803  0.85279210  0.58185218     0.36440
C772        C  0.28331240  0.85817905  0.57607871    -0.05730
C773        C  0.26462107  0.89215884  0.59123685    -0.32700
C774        C  0.28616461  0.92043475  0.61259075     0.36350
H775        H  0.37780139  0.87713015  0.60733646     0.16720
O776        O  0.34281617  0.81891854  0.56850620    -0.60200
H777        H  0.23304874  0.89661726  0.58663260     0.16740
O778        O  0.26711199  0.95379167  0.62635202    -0.60300
H779        H  0.25434866  0.94561125  0.65165996     0.43730
H780        H  0.36221347  0.82782320  0.54816224     0.43690
C781        C  0.45376197  0.78425310  0.25229433    -0.05380
C782        C  0.44863614  0.76404010  0.28840742    -0.32810
C783        C  0.41097348  0.75183765  0.30072491     0.36440
C784        C  0.37763743  0.75979921  0.27681526    -0.05730
C785        C  0.38251639  0.78018350  0.24074359    -0.32700
C786        C  0.42033430  0.79295807  0.22864992     0.36350
H787        H  0.47417286  0.75713865  0.30681589     0.16720
O788        O  0.40706256  0.73150440  0.33587635    -0.60200
H789        H  0.35696660  0.78634724  0.22212332     0.16740
O790        O  0.42439243  0.81347992  0.19369141    -0.60300
H791        H  0.41558201  0.84093349  0.19978646     0.43730
H792        H  0.40854296  0.70302157  0.32846465     0.43690
C793        C  0.62047739  0.78605335  0.24546569    -0.05380
C794        C  0.65193903  0.80713633  0.22799383    -0.32810
C795        C  0.69148908  0.79745124  0.23738270     0.35880
C796        C  0.69949868  0.76632531  0.26414825    -0.05730
C797        C  0.66797284  0.74559700  0.28160959    -0.32700
C798        C  0.62869334  0.75524398  0.27244176     0.36350
H799        H  0.64576875  0.83111174  0.20741858     0.16720
O800        O  0.72199761  0.81824973  0.22021143    -0.60200
H801        H  0.67390722  0.72217168  0.30292407     0.16740
O802        O  0.59824239  0.73581973  0.29141392    -0.60300
H803        H  0.59921618  0.70810893  0.28152172     0.43730
H804        H  0.72744611  0.84048798  0.23877454     0.43690
C805        C  0.49185599  0.74922092  0.18129332    -0.05380
C806        C  0.47497345  0.71236975  0.19083782    -0.32810
C807        C  0.45281062  0.69149486  0.16246131     0.36440
C808        C  0.44655099  0.70806562  0.12455044    -0.05730
C809        C  0.46288824  0.74514253  0.11527235    -0.32700
C810        C  0.48582268  0.76553511  0.14324726     0.36350
H811        H  0.47922430  0.69978757  0.22019852     0.16720
O812        O  0.43735070  0.65504801  0.17197007    -0.60200
H813        H  0.45849690  0.75790375  0.08599342     0.16740
O814        O  0.50258694  0.80125319  0.13314642    -0.60300
H815        H  0.48170939  0.82142041  0.13832903     0.43730
H816        H  0.41060401  0.66067329  0.18309057     0.43690
C817        C  0.49382390  0.85345943  0.28532369    -0.05380
C818        C  0.47086384  0.88117194  0.26435341    -0.32810
C819        C  0.44913947  0.91034565  0.28444239     0.36440
C820        C  0.45078499  0.91261956  0.32627634    -0.05730
C821        C  0.47351596  0.88459753  0.34732828    -0.32700
C822        C  0.49471920  0.85482898  0.32713343     0.36350
H823        H  0.47012361  0.88034374  0.23212751     0.16720
O824        O  0.42772593  0.93747556  0.26279840    -0.60200
H825        H  0.47424880  0.88530901  0.37956083     0.16740
O826        O  0.51447972  0.82600644  0.34824773    -0.60300
H827        H  0.53288116  0.84023797  0.36634097     0.43730
H828        H  0.40243962  0.92389577  0.25617239     0.43690
C829        C  0.57886806  0.74920984  0.17885229    -0.05380
C830        C  0.59965203  0.76995594  0.14926973    -0.32810
C831        C  0.62074927  0.74960281  0.11973564     0.36440
C832        C  0.62106830  0.70776062  0.11933593    -0.05730
C833        C  0.59987925  0.68700592  0.14870433    -0.32700
C834        C  0.57943629  0.70744707  0.17878561     0.36350
H835        H  0.59928480  0.80213849  0.14901731     0.16720
O836        O  0.64035690  0.77090608  0.09102825    -0.60200
H837        H  0.59996589  0.65482451  0.14892931     0.16740
O838        O  0.56016943  0.68652156  0.20800451    -0.60300
H839        H  0.58129810  0.67232297  0.22287444     0.43730
H840        H  0.62119442  0.77339144  0.06874426     0.43690
C841        C  0.62241406  0.91354658  0.32439024    -0.05380
C842        C  0.60422819  0.92265382  0.28804703    -0.32810
C843        C  0.58316285  0.89351364  0.26716288     0.36440
C844        C  0.58086250  0.85465206  0.28233527    -0.05730
C845        C  0.60014955  0.84530307  0.31812612    -0.32700
C846        C  0.62067825  0.87459113  0.33929596     0.36350
H847        H  0.60588779  0.95252651  0.27616916     0.16720
O848        O  0.56559485  0.90287952  0.23153241    -0.60200
H849        H  0.59875265  0.81540249  0.32990171     0.16740
O850        O  0.63899457  0.86494089  0.37444973    -0.60300
H851        H  0.66641401  0.85703641  0.36693331     0.43730
H852        H  0.54264971  0.92010709  0.23839881     0.43690
C853        C  0.27163774  0.76231421  0.69130454    -0.05380
C854        C  0.24898609  0.79717760  0.68786778    -0.32810
C855        C  0.23634284  0.81042031  0.65036679     0.36440
C856        C  0.24774084  0.78940468  0.61600434    -0.05730
C857        C  0.27092583  0.75497938  0.61963090    -0.32700
C858        C  0.28222706  0.74096671  0.65695553     0.36350
H859        H  0.24088100  0.81383584  0.71425741     0.16720
O860        O  0.21318546  0.84381597  0.64758195    -0.60200
H861        H  0.27988100  0.73865920  0.59327617     0.16740
O862        O  0.30468341  0.70701596  0.65959472    -0.60300
H863        H  0.28518296  0.68496902  0.66031946     0.43730
H864        H  0.18550456  0.83436919  0.65103843     0.43690
C865        C  0.45281499  0.78921629  0.81936024    -0.05380
C866        C  0.41845493  0.80732822  0.83454866    -0.32810
C867        C  0.38088281  0.79550602  0.82091899     0.36440
C868        C  0.37775006  0.76490963  0.79256186    -0.05730
C869        C  0.41217251  0.74778592  0.77658463    -0.32700
C870        C  0.44957003  0.76019514  0.78933978     0.36350
H871        H  0.42079688  0.83031850  0.85694951     0.16720
O872        O  0.34746894  0.81408232  0.83514389    -0.60200
H873        H  0.40995947  0.72465251  0.75425447     0.16740
O874        O  0.48299190  0.74361189  0.77265338    -0.60300
H875        H  0.48847844  0.71932366  0.78839010     0.43730
H876        H  0.33886028  0.79791926  0.85823701     0.43690
C877        C  0.61791902  0.78707125  0.82335041    -0.05380
C878        C  0.64966847  0.81343550  0.82962083    -0.32810
C879        C  0.68839490  0.80314625  0.81781209     0.36440
C880        C  0.69572877  0.76584448  0.80035344    -0.05730
C881        C  0.66410058  0.73939227  0.79473244    -0.32700
C882        C  0.62546036  0.74993787  0.80555944     0.36350
H883        H  0.64438986  0.84197513  0.84351879     0.16720
O884        O  0.71879842  0.82961940  0.82339022    -0.60200
H885        H  0.66931829  0.71071801  0.78098740     0.16740
O886        O  0.59504262  0.72385939  0.79820026    -0.60300
H887        H  0.58306358  0.73283561  0.77278380     0.43730
H888        H  0.73019354  0.82284365  0.84973820     0.43690
C889        C  0.44558309  0.71454228  0.95270270    -0.05380
C890        C  0.47188048  0.74486389  0.96354613    -0.32810
C891        C  0.49344626  0.76557888  0.93436231     0.36440
C892        C  0.48912450  0.75557652  0.89375091    -0.05730
C893        C  0.46240823  0.72518195  0.88337836    -0.32700
C894        C  0.44034415  0.70525284  0.91238893     0.36350
H895        H  0.47574113  0.75244090  0.99465717     0.16720
O896        O  0.51783990  0.79627464  0.94553847    -0.60200
H897        H  0.45919937  0.71588077  0.85286778     0.16740
O898        O  0.41334714  0.67693986  0.90103900    -0.60300
H899        H  0.42841557  0.65160865  0.90062351     0.43730
H900        H  0.53811527  0.78438633  0.96336395     0.43690
C901        C  0.49286041  0.85855161  0.78734193    -0.05380
C902        C  0.48649663  0.85262545  0.74655372    -0.32810
C903        C  0.46641219  0.88125262  0.72393280     0.36440
C904        C  0.45132775  0.91564288  0.74247258    -0.05730
C905        C  0.45739407  0.92127959  0.78338935    -0.32700
C906        C  0.47837822  0.89317054  0.80573184     0.36350
H907        H  0.49688069  0.82565374  0.73238026     0.16720
O908        O  0.46001109  0.87452803  0.68419720    -0.60200
H909        H  0.44632319  0.94783810  0.79792029     0.16740
O910        O  0.48547164  0.90010954  0.84532500    -0.60300
H911        H  0.46073268  0.89217871  0.85922819     0.43730
H912        H  0.48470699  0.88337610  0.67075238     0.43690
C913        C  0.57884962  0.85672744  0.78782406    -0.05380
C914        C  0.58870139  0.89296205  0.80575927    -0.32810
C915        C  0.61050397  0.92141741  0.78488242     0.36440
C916        C  0.62154584  0.91421281  0.74516967    -0.05730
C917        C  0.61135009  0.87811717  0.72703485    -0.32700
C918        C  0.59038779  0.84913675  0.74833519     0.36350
H919        H  0.57972399  0.89894957  0.83616268     0.16720
O920        O  0.61954811  0.95680863  0.80293989    -0.60200
H921        H  0.62021705  0.87218309  0.69658734     0.16740
O922        O  0.58223242  0.81314435  0.73099496    -0.60300
H923        H  0.56423486  0.81903157  0.70839554     0.43730
H924        H  0.64462309  0.95178922  0.81761343     0.43690
C925        C  0.57753559  0.75109382  0.89117417    -0.05380
C926        C  0.60600502  0.77020346  0.91486397    -0.32810
C927        C  0.62864757  0.74903575  0.94243426     0.36440
C928        C  0.62241329  0.70795329  0.94750561    -0.05730
C929        C  0.59431328  0.68864878  0.92337935    -0.32700
C930        C  0.57218616  0.70981878  0.89504286     0.36350
H931        H  0.61052068  0.80194360  0.91208226     0.16720
O932        O  0.65571902  0.76919434  0.96526256    -0.60200
H933        H  0.58982281  0.65690921  0.92607388     0.16740
O934        O  0.54705732  0.68982460  0.86986596    -0.60300
H935        H  0.52831445  0.67507056  0.88718957     0.43730
H936        H  0.67989482  0.77124146  0.94846676     0.43690
C937        C  0.27028589  0.23589550  0.69403263    -0.05380
C938        C  0.27656672  0.26116601  0.66156305    -0.32810
C939        C  0.26534664  0.24976366  0.62318652     0.36440
C940        C  0.24703612  0.21272136  0.61682942    -0.05730
C941        C  0.24091362  0.18720407  0.64933310    -0.32700
C942        C  0.25257244  0.19857424  0.68780042     0.36350
H943        H  0.29091348  0.28963762  0.66592648     0.16720
O944        O  0.27415602  0.27405791  0.59157613    -0.60200
H945        H  0.22715950  0.15852105  0.64488872     0.16740
O946        O  0.24659698  0.17311634  0.71905092    -0.60300
H947        H  0.22021343  0.18044592  0.73003876     0.43730
H948        H  0.25890367  0.29888188  0.59610757     0.43690
C949        C  0.24529056  0.41682175  0.82249646    -0.05380
C950        C  0.26282283  0.41083355  0.78507321    -0.32810
C951        C  0.27444538  0.37301861  0.77263166     0.36440
C952        C  0.26927131  0.34021595  0.79797650    -0.05730
C953        C  0.25168584  0.34586678  0.83548003    -0.32700
C954        C  0.23945548  0.38396376  0.84782742     0.36350
H955        H  0.26801540  0.43589035  0.76551732     0.16720
O956        O  0.29249450  0.36859978  0.73625460    -0.60200
H957        H  0.24728902  0.32071262  0.85507154     0.16740
O958        O  0.22115731  0.38875267  0.88403817    -0.60300
H959        H  0.24056182  0.37940513  0.90418823     0.43730
H960        H  0.27047661  0.36812646  0.71664812     0.43690
C961        C  0.25115856  0.58265505  0.82093901    -0.05380
C962        C  0.22625770  0.61568356  0.82655464    -0.32810
C963        C  0.23829241  0.65347117  0.81378245     0.36440
C964        C  0.27584867  0.65851950  0.79594774    -0.05730
C965        C  0.30085906  0.62560928  0.79096850    -0.32700
C966        C  0.28853604  0.58786801  0.80271488     0.36350
H967        H  0.19747075  0.61208545  0.84052278     0.16720
O968        O  0.21320058  0.68523051  0.81868377    -0.60200
H969        H  0.32961628  0.62906557  0.77683137     0.16740
O970        O  0.31293742  0.55597062  0.79548653    -0.60300
H971        H  0.30304933  0.54413273  0.77034948     0.43730
H972        H  0.22098788  0.69731644  0.84443620     0.43690
C973        C  0.11984175  0.41691783  0.74252824    -0.05380
C974        C  0.11897066  0.41603438  0.78429862    -0.32810
C975        C  0.14734509  0.43664647  0.80666153     0.36440
C976        C  0.17741524  0.45820407  0.78728926    -0.05730
C977        C  0.17868010  0.45871979  0.74557191    -0.32700
C978        C  0.14982912  0.43880435  0.72316597     0.36350
H979        H  0.09583733  0.39978865  0.79971248     0.16720
O980        O  0.14475184  0.43682603  0.84742870    -0.60200
H981        H  0.20228250  0.47437040  0.73034953     0.16740
O982        O  0.15222884  0.43949655  0.68242834    -0.60300
H983        H  0.13975154  0.46497399  0.67441652     0.43730
H984        H  0.15005447  0.40909137  0.85579755     0.43690
C985        C  0.28208069  0.45656327  0.89234628    -0.05380
C986        C  0.31620758  0.43530305  0.88118242    -0.32810
C987        C  0.33757336  0.41349721  0.90938936     0.36440
C988        C  0.32469502  0.41259605  0.94915121    -0.05730
C989        C  0.29034540  0.43335484  0.96031001    -0.32700
C990        C  0.26918298  0.45560687  0.93220439     0.36350
H991        H  0.32627487  0.43575198  0.85054718     0.16720
O992        O  0.37084783  0.39297740  0.89783936    -0.60200
H993        H  0.28006490  0.43245301  0.99087687     0.16740
O994        O  0.23497744  0.47489808  0.94337966    -0.60300
H995        H  0.24374359  0.49726896  0.96043375     0.43730
H996        H  0.36094887  0.36680962  0.88862568     0.43690
C997        C  0.17930969  0.54487385  0.78719929    -0.05380
C998        C  0.14261016  0.55334435  0.80514294    -0.32810
C999        C  0.11356512  0.57505690  0.78474030     0.36440
C1000       C  0.12084848  0.58804150  0.74563633    -0.05730
C1001       C  0.15739687  0.57917992  0.72748166    -0.32700
C1002       C  0.18690237  0.55836800  0.74832934     0.36350
H1003       H  0.13658404  0.54311337  0.83511503     0.16720
O1004       O  0.07787050  0.58279007  0.80293468    -0.60200
H1005       H  0.16329629  0.58903086  0.69735730     0.16740
O1006       O  0.22273354  0.55069425  0.73037637    -0.60300
H1007       H  0.23736898  0.57622134  0.73107759     0.43730
H1008       H  0.06054073  0.56009794  0.79573777     0.43690
C1009       C  0.28379555  0.54394003  0.89134326    -0.05380
C1010       C  0.26316742  0.56922235  0.91739428    -0.32810
C1011       C  0.28336393  0.59156622  0.94602924     0.36440
C1012       C  0.32513396  0.58920726  0.94881962    -0.05730
C1013       C  0.34584762  0.56438467  0.92227752    -0.32700
C1014       C  0.32554221  0.54189333  0.89358430     0.36350
H1015       H  0.23105099  0.57124248  0.91576777     0.16720
O1016       O  0.26182390  0.61506669  0.97153138    -0.60200
H1017       H  0.37799279  0.56269994  0.92345394     0.16740
O1018       O  0.34666576  0.51974281  0.86649657    -0.60300
H1019       H  0.36423903  0.50208199  0.88228043     0.43730
H1020       H  0.25604756  0.59797087  0.99485111     0.43690
C1021       C  0.45147346  0.21390341  0.82004096    -0.05380
C1022       C  0.41893301  0.20053103  0.84248654    -0.32810
C1023       C  0.38004814  0.21162429  0.83184712     0.36440
C1024       C  0.37372336  0.23620063  0.79854756    -0.05730
C1025       C  0.40633899  0.24948605  0.77635739    -0.32700
C1026       C  0.44494800  0.23882410  0.78708694     0.36350
H1027       H  0.42374867  0.18162008  0.86810482     0.16720
O1028       O  0.34853391  0.19852002  0.85410637    -0.60200
H1029       H  0.40177895  0.26852408  0.75075801     0.16740
O1030       O  0.47631463  0.25273664  0.76502551    -0.60300
H1031       H  0.48527123  0.27711408  0.77892064     0.43730
H1032       H  0.33974706  0.17366409  0.84096647     0.43690
C1033       C  0.49103614  0.14472798  0.78504229    -0.05380
C1034       C  0.48057802  0.15162386  0.74531108    -0.32810
C1035       C  0.45986541  0.12283801  0.72364165     0.36440
C1036       C  0.44865562  0.08705972  0.74206008    -0.05730
C1037       C  0.45807081  0.08070447  0.78219921    -0.32700
C1038       C  0.47960440  0.10910610  0.80355527     0.36350
H1039       H  0.48836730  0.17939168  0.73114117     0.16720
O1040       O  0.44999674  0.13019473  0.68476110    -0.60200
H1041       H  0.44941640  0.05332353  0.79673284     0.16740
O1042       O  0.48903307  0.10207881  0.84262669    -0.60300
H1043       H  0.51470776  0.08758104  0.84184992     0.43730
H1044       H  0.42593812  0.14721159  0.68610078     0.43690
C1045       C  0.44795903  0.29033951  0.94763997    -0.05380
C1046       C  0.46191672  0.25192966  0.95566988    -0.32810
C1047       C  0.48407230  0.23117274  0.92714598     0.36440
C1048       C  0.49121776  0.24831037  0.88966994    -0.05730
C1049       C  0.47602712  0.28611926  0.88116274    -0.32700
C1050       C  0.45548966  0.30762049  0.91030545     0.36350
H1051       H  0.45623929  0.23834992  0.98434757     0.16720
O1052       O  0.49783580  0.19377169  0.93568300    -0.60200
H1053       H  0.48057297  0.29913897  0.85205752     0.16740
O1054       O  0.44177852  0.34496232  0.90163853    -0.60300
H1055       H  0.46422972  0.36299116  0.90777877     0.43730
H1056       H  0.52315711  0.19793372  0.95016796     0.43690
C1057       C  0.57796826  0.14394234  0.78505703    -0.05380
C1058       C  0.59543681  0.11226056  0.80570200    -0.32810
C1059       C  0.61759967  0.08343102  0.78550057     0.36440
C1060       C  0.62158432  0.08545917  0.74384514    -0.05730
C1061       C  0.60424875  0.11728777  0.72317403    -0.32700
C1062       C  0.58292630  0.14683202  0.74360615     0.36350
H1063       H  0.59199738  0.11005629  0.83769567     0.16720
O1064       O  0.63390938  0.05253736  0.80651769    -0.60200
H1065       H  0.60798059  0.11968929  0.69122723     0.16740
O1066       O  0.56879947  0.17941325  0.72346526    -0.60300
H1067       H  0.55275261  0.16895833  0.70104566     0.43730
H1068       H  0.65936547  0.06293066  0.81709954     0.43690
C1069       C  0.57857656  0.24904420  0.88895261    -0.05380
C1070       C  0.60060706  0.22855174  0.91781927    -0.32810
C1071       C  0.62263836  0.24912683  0.94643998     0.36440
C1072       C  0.62217890  0.29095964  0.94701317    -0.05730
C1073       C  0.60054336  0.31147501  0.91779650    -0.32700
C1074       C  0.57910995  0.29082759  0.88856326     0.36350
H1075       H  0.60053234  0.19636817  0.91821867     0.16720
O1076       O  0.64308537  0.22806101  0.97475018    -0.60200
H1077       H  0.60078341  0.34365313  0.91722489     0.16740
O1078       O  0.56054675  0.31137418  0.85853510    -0.60300
H1079       H  0.54425329  0.33224396  0.87158338     0.43730
H1080       H  0.66857449  0.22058304  0.96188860     0.43690
C1081       C  0.80201483  0.23384693  0.69666014    -0.05380
C1082       C  0.82012063  0.19670702  0.69086055    -0.32810
C1083       C  0.83165518  0.18437132  0.65253139     0.36440
C1084       C  0.82465590  0.20936483  0.61964068    -0.05730
C1085       C  0.80647976  0.24639687  0.62573325    -0.32700
C1086       C  0.79546498  0.25881467  0.66378629     0.36350
H1087       H  0.82536156  0.17735043  0.71606605     0.16720
O1088       O  0.85064268  0.14861759  0.64759497    -0.60200
H1089       H  0.80051757  0.26571105  0.60062977     0.16740
O1090       O  0.77666250  0.29472460  0.66840736    -0.60300
H1091       H  0.79827269  0.31471317  0.66896684     0.43730
H1092       H  0.83177675  0.12816823  0.65725262     0.43690
C1093       C  0.69589799  0.23215282  0.79824804    -0.05380
C1094       C  0.66347581  0.25289667  0.78241398    -0.32810
C1095       C  0.62472709  0.24302321  0.79334890     0.36440
C1096       C  0.61796640  0.21211856  0.82060761    -0.05730
C1097       C  0.65034871  0.19101613  0.83638442    -0.32700
C1098       C  0.68932848  0.20080241  0.82510247     0.36350
H1099       H  0.66830882  0.27691976  0.76150874     0.16720
O1100       O  0.59337304  0.26301499  0.77652567    -0.60200
H1101       H  0.64535306  0.16707839  0.85729871     0.16740
O1102       O  0.72073813  0.18021583  0.84093984    -0.60300
H1103       H  0.72583506  0.15818978  0.82199132     0.43730
H1104       H  0.59306652  0.28945607  0.78950414     0.43690
C1105       C  0.79686617  0.33790080  0.80051750    -0.05380
C1106       C  0.83472420  0.34517075  0.81643455    -0.32810
C1107       C  0.84622554  0.38393175  0.82691498     0.36440
C1108       C  0.81968513  0.41579610  0.82086640    -0.05730
C1109       C  0.78177651  0.40816989  0.80530985    -0.32700
C1110       C  0.77019906  0.36968715  0.79541346     0.36350
H1111       H  0.85532217  0.32077527  0.82071625     0.16720
O1112       O  0.88276399  0.39032878  0.84386578    -0.60200
H1113       H  0.76124778  0.43246454  0.80009177     0.16740
O1114       O  0.73347793  0.36365532  0.77873923    -0.60300
H1115       H  0.71460083  0.36347636  0.80142872     0.43730
H1116       H  0.90258059  0.38030638  0.82440357     0.43690
C1117       C  0.81982237  0.58339459  0.81670358    -0.05380
C1118       C  0.82775850  0.61472247  0.84313339    -0.32810
C1119       C  0.81708077  0.65378980  0.83323645     0.36440
C1120       C  0.79908706  0.66174688  0.79629441    -0.05730
C1121       C  0.79180242  0.63050946  0.76977285    -0.32700
C1122       C  0.80152777  0.59158055  0.77993707     0.36350
H1123       H  0.84207865  0.60886146  0.87136976     0.16720
O1124       O  0.82421688  0.68391017  0.85973939    -0.60200
H1125       H  0.77760133  0.63628854  0.74140886     0.16740
O1126       O  0.79255195  0.56151191  0.75389778    -0.60300
H1127       H  0.76667396  0.55084102  0.76309945     0.43730
H1128       H  0.85073687  0.69442217  0.85237237     0.43690
C1129       C  0.88802499  0.45631206  0.78174174    -0.05380
C1130       C  0.92732988  0.45675730  0.79568159    -0.32810
C1131       C  0.95717875  0.43622977  0.77533761     0.36440
C1132       C  0.94790542  0.41542331  0.74036169    -0.05730
C1133       C  0.90884727  0.41538956  0.72594376    -0.32700
C1134       C  0.87869743  0.43527419  0.74677345     0.36350
H1135       H  0.93470146  0.47283497  0.82262652     0.16720
O1136       O  0.99529457  0.43656722  0.78982154    -0.60200
H1137       H  0.90168179  0.39956849  0.69878834     0.16740
O1138       O  0.84064616  0.43547447  0.73205640    -0.60300
H1139       H  0.83153350  0.40750485  0.73331303     0.43730
H1140       H  0.00838815  0.45934679  0.77651125     0.43690
C1141       C  0.74200802  0.41607907  0.94731756    -0.05380
C1142       C  0.78374238  0.41610227  0.94754035    -0.32810
C1143       C  0.80517169  0.43687730  0.91850339     0.36440
C1144       C  0.78488778  0.45756980  0.88836515    -0.05730
C1145       C  0.74321912  0.45713473  0.88773703    -0.32700
C1146       C  0.72173977  0.43715254  0.91726933     0.36350
H1147       H  0.79983257  0.40047825  0.97067538     0.16720
O1148       O  0.84590422  0.43802569  0.92045688    -0.60200
H1149       H  0.72730988  0.47207650  0.86409543     0.16740
O1150       O  0.68101163  0.43696356  0.91548749    -0.60300
H1151       H  0.67257852  0.46249485  0.92760703     0.43730
H1152       H  0.85490247  0.41042900  0.91538240     0.43690
C1153       C  0.78467782  0.54388616  0.88658269    -0.05380
C1154       C  0.80382813  0.55291189  0.92243884    -0.32810
C1155       C  0.78383573  0.57363048  0.95248042     0.36440
C1156       C  0.74387251  0.58468689  0.94715257    -0.05730
C1157       C  0.72460553  0.57548032  0.91129019    -0.32700
C1158       C  0.74509516  0.55593512  0.88067495     0.36350
H1159       H  0.83442132  0.54388607  0.92704412     0.16720
O1160       O  0.80331290  0.58238240  0.98720891    -0.60200
H1161       H  0.69393153  0.58423385  0.90673531     0.16740
O1162       O  0.72616559  0.54818310  0.84540101    -0.60300
H1163       H  0.72807453  0.57316709  0.82991780     0.43730
H1164       H  0.80515190  0.55679006  0.00168160     0.43690
C1165       C  0.94810318  0.58629381  0.74160639    -0.05380
C1166       C  0.92085288  0.56329051  0.71992961    -0.32810
C1167       C  0.89072759  0.54192792  0.73940487     0.36440
C1168       C  0.88803707  0.54304798  0.78122578    -0.05730
C1169       C  0.91511813  0.56619307  0.80278863    -0.32700
C1170       C  0.94485378  0.58773337  0.78341180     0.36350
H1171       H  0.92237712  0.56251378  0.68772605     0.16720
O1172       O  0.86279699  0.52185342  0.71747833    -0.60200
H1173       H  0.91328176  0.56734606  0.83497481     0.16740
O1174       O  0.97083332  0.60979862  0.80573071    -0.60300
H1175       H  0.99208297  0.59098859  0.81371375     0.43730
H1176       H  0.87782564  0.50385094  0.69954549     0.43690
loop_ 
_geom_bond_atom_site_label_1 
_geom_bond_atom_site_label_2 
_geom_bond_distance 
_geom_bond_site_symmetry_2 
_ccdc_geom_bond_type 
C1            C2   1.412       .  A
C1            C6   1.415       .  A
C1         C1168   1.491       .  S
C2            C3   1.410       .  A
C2         C1117   1.485       .  S
C3            C4   1.412       .  A
C3         C1153   1.480       .  S
C4            C5   1.413       .  A
C4         C1144   1.488       .  S
C5            C6   1.415       .  A
C5         C1108   1.488       .  S
C6         C1129   1.480       .  S
C7            C8   1.401       .  A
C7           C12   1.402       .  A
C7         C1093   1.472       .  S
C8            C9   1.402       .  A
C8           H13   1.084       .  S
C9           C10   1.402       .  A
C9         C1105   1.476       .  S
C10          C11   1.405       .  A
C10          H14   1.084       .  S
C11          C12   1.404       .  A
C11        C1081   1.476       .  S
C12          H15   1.084       .  S
C16          C17   1.411       .  A
C16          C21   1.414       .  A
C16        C1069   1.486       .  S
C17          C18   1.409       .  A
C17        C1096   1.482       .  S
C18          C19   1.411       .  A
C18        C1057   1.483       .  S
C19          C20   1.409       .  A
C19        C1033   1.480       .  S
C20          C21   1.410       .  A
C20        C1021   1.484       .  S
C21        C1048   1.480       .  S
C22          C23   1.410       .  A
C22          C27   1.413       .  A
C22         C997   1.484       .  S
C23          C24   1.412       .  A
C23         C961   1.487       .  S
C24          C25   1.416       .  A
C24        C1009   1.491       .  S
C25          C26   1.416       .  A
C25         C985   1.482       .  S
C26          C27   1.414       .  A
C26         C949   1.491       .  S
C27         C976   1.487       .  S
C28          C29   1.402       .  A
C28          C33   1.402       .  A
C28         C937   1.477       .  S
C29          C30   1.404       .  A
C29          H34   1.084       .  S
C30          C31   1.405       .  A
C30        C1024   1.476       .  S
C31          C32   1.405       .  A
C31          H35   1.084       .  S
C32          C33   1.403       .  A
C32         C952   1.479       .  S
C33          H36   1.084       .  S
C37          C38   1.421       .  A
C37          C42   1.417       .  A
C37         C892   1.499       .  S
C38          C39   1.418       .  A
C38         C925   1.489       .  S
C39          C40   1.409       .  A
C39         C877   1.490       .  S
C40          C41   1.406       .  A
C40         C913   1.478       .  S
C41          C42   1.407       .  A
C41         C901   1.483       .  S
C42         C865   1.478       .  S
C43          C44   1.403       .  A
C43          C48   1.402       .  A
C43         C964   1.476       .  S
C44          C45   1.402       .  A
C44          H49   1.084       .  S
C45          C46   1.399       .  A
C45         C868   1.469       .  S
C46          C47   1.400       .  A
C46          H50   1.084       .  S
C47          C48   1.403       .  A
C47         C853   1.470       .  S
C48          H51   1.084       .  S
C52          C53   1.409       .  A
C52          C57   1.413       .  A
C52         C844   1.483       .  S
C53          C54   1.411       .  A
C53         C793   1.482       .  S
C54          C55   1.413       .  A
C54         C829   1.485       .  S
C55          C56   1.411       .  A
C55         C805   1.481       .  S
C56          C57   1.411       .  A
C56         C781   1.486       .  S
C57         C817   1.484       .  S
C58          C59   1.406       .  A
C58          C63   1.411       .  A
C58         C772   1.483       .  S
C59          C60   1.409       .  A
C59         C856   1.481       .  S
C60          C61   1.420       .  A
C60         C757   1.486       .  S
C61          C62   1.419       .  A
C61         C736   1.496       .  S
C62          C63   1.416       .  A
C62         C721   1.494       .  S
C63         C745   1.479       .  S
C64          C65   1.403       .  A
C64          C69   1.403       .  A
C64         C709   1.476       .  S
C65          C66   1.400       .  A
C65          H70   1.084       .  S
C66          C67   1.402       .  A
C66         C784   1.474       .  S
C67          C68   1.403       .  A
C67          H71   1.084       .  S
C68          C69   1.404       .  A
C68         C724   1.477       .  S
C69          H72   1.084       .  S
C73          C74   1.413       .  A
C73          C78   1.414       .  A
C73         C697   1.484       .  S
C74          C75   1.413       .  A
C74         C712   1.488       .  S
C75          C76   1.412       .  A
C75         C685   1.486       .  S
C76          C77   1.411       .  A
C76         C673   1.479       .  S
C77          C78   1.412       .  A
C77         C649   1.489       .  S
C78         C664   1.484       .  S
C79          C80   1.410       .  A
C79          C84   1.414       .  A
C79         C637   1.490       .  S
C80          C81   1.408       .  A
C80         C589   1.480       .  S
C81          C82   1.411       .  A
C81         C625   1.480       .  S
C82          C83   1.409       .  A
C82         C616   1.481       .  S
C83          C84   1.411       .  A
C83         C577   1.482       .  S
C84         C601   1.479       .  S
C85          C86   1.403       .  A
C85          C90   1.402       .  A
C85         C565   1.477       .  S
C86          C87   1.401       .  A
C86          H91   1.084       .  S
C87          C88   1.403       .  A
C87         C580   1.474       .  S
C88          C89   1.403       .  A
C88          H92   1.084       .  S
C89          C90   1.403       .  A
C89         C652   1.476       .  S
C90          H93   1.084       .  S
C94          C95   1.413       .  A
C94          C99   1.415       .  A
C94         C517   1.486       .  S
C95          C96   1.409       .  A
C95         C940   1.490       .  S
C96          C97   1.414       .  A
C96         C529   1.481       .  S
C97          C98   1.415       .  A
C97         C544   1.488       .  S
C98          C99   1.414       .  A
C98         C568   1.490       .  S
C99         C553   1.485       .  S
C100        C101   1.411       .  A
C100        C105   1.411       .  A
C100        C508   1.481       .  S
C101        C102   1.410       .  A
C101        C457   1.489       .  S
C102        C103   1.415       .  A
C102        C493   1.479       .  S
C103        C104   1.414       .  A
C103        C472   1.489       .  S
C104        C105   1.411       .  A
C104        C445   1.488       .  S
C105        C484   1.482       .  S
C106        C107   1.412       .  A
C106        C111   1.414       .  A
C106        C424   1.479       .  S
C107        C108   1.411       .  A
C107       C1084   1.489       .  S
C108        C109   1.412       .  A
C108        C433   1.486       .  S
C109        C110   1.411       .  A
C109        C409   1.478       .  S
C110        C111   1.412       .  A
C110        C385   1.490       .  S
C111        C400   1.487       .  S
C112        C113   1.399       .  A
C112        C117   1.400       .  A
C112        C592   1.471       .  S
C113        C114   1.402       .  A
C113        H118   1.085       .  S
C114        C115   1.404       .  A
C114        C448   1.475       .  S
C115        C116   1.404       .  A
C115        H119   1.084       .  S
C116        C117   1.404       .  A
C116        C388   1.475       .  S
C117        H120   1.084       .  S
C121        C122   1.409       .  A
C121        C126   1.412       .  A
C121        C373   1.481       .  S
C122        C123   1.413       .  A
C122        C325   1.486       .  S
C123        C124   1.418       .  A
C123        C364   1.493       .  S
C124        C125   1.416       .  A
C124        C352   1.480       .  S
C125        C126   1.413       .  A
C125        C313   1.493       .  S
C126        C337   1.485       .  S
C127        C128   1.404       .  A
C127        C132   1.406       .  A
C127        C460   1.479       .  S
C128        C129   1.403       .  A
C128        H133   1.084       .  S
C129        C130   1.401       .  A
C129        C796   1.472       .  S
C130        C131   1.403       .  A
C130        H134   1.085       .  S
C131        C132   1.404       .  A
C131        C316   1.479       .  S
C132        H135   1.084       .  S
C136        C137   1.400       .  A
C136        C141   1.400       .  A
C136       C1120   1.474       .  S
C137        C138   1.404       .  A
C137        H142   1.084       .  S
C138        C139   1.406       .  A
C138        C880   1.477       .  S
C139        C140   1.405       .  A
C139        H143   1.084       .  S
C140        C141   1.401       .  A
C140        C328   1.475       .  S
C141        H144   1.085       .  S
O145       Cu153   2.016       .  S
O145        C155   1.279       .  A
O146       Cu153   2.013   1_655  S
O146        C156   1.279       .  A
O147       Cu153   2.004   1_655  S
O147        C157   1.277       .  A
O148       Cu153   2.007       .  S
O148        C158   1.277       .  A
O149       Cu154   2.010       .  S
O149        C158   1.278       .  A
O150       Cu154   2.016   1_655  S
O150        C157   1.279       .  A
O151       Cu154   2.010   1_655  S
O151        C156   1.278       .  A
O152       Cu154   2.008       .  S
O152        C155   1.277       .  A
Cu153      Cu154   2.374       .  S
C155       C1000   1.472       .  S
C156        C361   1.481       .  S
C157       C1165   1.480       .  S
C158        C760   1.470       .  S
O159       Cu167   2.009   1_545  S
O159        C169   1.278       .  A
O160       Cu167   2.008       .  S
O160        C170   1.277       .  A
O161       Cu167   2.005       .  S
O161        C171   1.277       .  A
O162       Cu167   2.006   1_545  S
O162        C172   1.277       .  A
O163       Cu168   2.002   1_545  S
O163        C172   1.276       .  A
O164       Cu168   2.003       .  S
O164        C171   1.277       .  A
O165       Cu168   2.006       .  S
O165        C170   1.277       .  A
O166       Cu168   2.006   1_545  S
O166        C169   1.278       .  A
Cu167      Cu168   2.379       .  S
C169       C1060   1.474       .  S
C170        C376   1.468       .  S
C171        C916   1.466       .  S
C172        C421   1.463       .  S
O173       Cu181   2.011       .  S
O173        C183   1.277       .  A
O174       Cu181   2.007   1_556  S
O174        C184   1.278       .  A
O175       Cu181   2.011   1_556  S
O175        C185   1.278       .  A
O176       Cu181   2.005       .  S
O176        C186   1.277       .  A
O177       Cu182   2.008       .  S
O177        C186   1.278       .  A
O178       Cu182   2.006   1_556  S
O178        C185   1.277       .  A
O179       Cu182   2.001   1_556  S
O179        C184   1.277       .  A
O180       Cu182   2.002       .  S
O180        C183   1.276       .  A
Cu181      Cu182   2.375       .  S
C183        C496   1.466       .  S
C184        C928   1.479       .  S
C185       C1156   1.470       .  S
C186        C832   1.476       .  S
O187       Cu195   2.003   1_565  S
O187        C197   1.277       .  A
O188       Cu195   2.004       .  S
O188        C198   1.277       .  A
O189       Cu195   2.007       .  S
O189        C199   1.277       .  A
O190       Cu195   2.005   1_565  S
O190        C200   1.277       .  A
O191       Cu196   2.013   1_565  S
O191        C200   1.278       .  A
O192       Cu196   2.012       .  S
O192        C199   1.278       .  A
O193       Cu196   2.010       .  S
O193        C198   1.278       .  A
O194       Cu196   2.013   1_565  S
O194        C197   1.278       .  A
Cu195      Cu196   2.377       .  S
C197        C769   1.472       .  S
C198       C1036   1.469       .  S
C199        C532   1.469       .  S
C200        C904   1.472       .  S
O201       Cu209   2.011   1_655  S
O201        C211   1.278       .  A
O202       Cu209   2.014       .  S
O202        C212   1.279       .  A
O203       Cu209   2.004       .  S
O203        C213   1.277       .  A
O204       Cu209   2.002   1_655  S
O204        C214   1.276       .  A
O205       Cu210   2.002   1_655  S
O205        C214   1.276       .  A
O206       Cu210   2.003       .  S
O206        C213   1.278       .  A
O207       Cu210   2.003       .  S
O207        C212   1.277       .  A
O208       Cu210   2.002   1_655  S
O208        C211   1.277       .  A
Cu209      Cu210   2.375       .  S
C211        C436   1.476       .  S
C212        C973   1.478       .  S
C213        C520   1.476       .  S
C214       C1132   1.461       .  S
O215       Cu223   2.009   1_556  S
O215        C225   1.278       .  A
O216       Cu223   2.003       .  S
O216        C226   1.276       .  A
O217       Cu223   2.009       .  S
O217        C227   1.278       .  A
O218       Cu223   2.013   1_556  S
O218        C228   1.278       .  A
O219       Cu224   2.008   1_556  S
O219        C228   1.276       .  A
O220       Cu224   2.007       .  S
O220        C227   1.278       .  A
O221       Cu224   2.011       .  S
O221        C226   1.278       .  A
O222       Cu224   2.010   1_556  S
O222        C225   1.278       .  A
Cu223      Cu224   2.376       .  S
C225       C1012   1.482       .  S
C226        C808   1.466       .  S
C227        C688   1.476       .  S
C228        C889   1.468       .  S
O229       Cu237   2.007       .  S
O229        C239   1.278       .  A
O230       Cu237   2.007   1_556  S
O230        C240   1.278       .  A
O231       Cu237   2.010   1_556  S
O231        C241   1.278       .  A
O232       Cu237   2.009       .  S
O232        C242   1.278       .  A
O233       Cu238   2.011       .  S
O233        C242   1.278       .  A
O234       Cu238   2.010   1_556  S
O234        C241   1.278       .  A
O235       Cu238   2.009   1_556  S
O235        C240   1.278       .  A
O236       Cu238   2.010       .  S
O236        C239   1.278       .  A
Cu237      Cu238   2.373       .  S
C239        C469   1.480       .  S
C240       C1072   1.477       .  S
C241       C1141   1.478       .  S
C242        C640   1.480       .  S
O243       Cu251   2.005       .  S
O243        C253   1.277       .  A
O244       Cu251   2.004   1_565  S
O244        C254   1.278       .  A
O245       Cu251   2.003   1_565  S
O245        C255   1.276       .  A
O246       Cu251   2.004       .  S
O246        C256   1.278       .  A
O247       Cu252   2.009       .  S
O247        C256   1.278       .  A
O248       Cu252   2.011   1_565  S
O248        C255   1.278       .  A
O249       Cu252   2.002   1_565  S
O249        C254   1.277       .  A
O250       Cu252   2.005       .  S
O250        C253   1.277       .  A
Cu251      Cu252   2.376       .  S
C253        C628   1.470       .  S
C254        C340   1.475       .  S
C255        C841   1.465       .  S
C256        C397   1.477       .  S
O257       Cu265   2.009       .  S
O257        C267   1.277       .  A
O258       Cu265   1.998   1_655  S
O258        C268   1.275       .  A
O259       Cu265   1.994   1_655  S
O259        C269   1.276       .  A
O260       Cu265   1.994       .  S
O260        C270   1.276       .  A
O261       Cu266   2.015       .  S
O261        C270   1.279       .  A
O262       Cu266   2.009   1_655  S
O262        C269   1.278       .  A
O263       Cu266   2.004   1_655  S
O263        C268   1.277       .  A
O264       Cu266   2.010       .  S
O264        C267   1.278       .  A
Cu265      Cu266   2.376       .  S
C267        C700   1.469       .  S
C268        C349   1.460       .  S
C269        C505   1.472       .  S
C270        C733   1.481       .  S
O271       Cu279   2.002   1_655  S
O271        C281   1.276       .  A
O272       Cu279   2.001       .  S
O272        C282   1.277       .  A
O273       Cu279   2.007       .  S
O273        C283   1.277       .  A
O274       Cu279   2.010   1_655  S
O274        C284   1.278       .  A
O275       Cu280   2.015   1_655  S
O275        C284   1.278       .  A
O276       Cu280   2.015       .  S
O276        C283   1.278       .  A
O277       Cu280   2.009       .  S
O277        C282   1.278       .  A
O278       Cu280   2.007   1_655  S
O278        C281   1.277       .  A
Cu279      Cu280   2.377       .  S
C281        C412   1.464       .  S
C282        C661   1.475       .  S
C283        C556   1.469       .  S
C284        C481   1.473       .  S
O285       Cu293   2.011   1_545  S
O285        C295   1.277       .  A
O286       Cu293   2.009       .  S
O286        C296   1.277       .  A
O287       Cu293   2.009       .  S
O287        C297   1.278       .  A
O288       Cu293   2.009   1_545  S
O288        C298   1.278       .  A
O289       Cu294   2.004   1_545  S
O289        C298   1.278       .  A
O290       Cu294   2.002       .  S
O290        C297   1.277       .  A
O291       Cu294   2.001       .  S
O291        C296   1.276       .  A
O292       Cu294   2.005   1_545  S
O292        C295   1.277       .  A
Cu293      Cu294   2.376       .  S
C295        C613   1.469       .  S
C296        C748   1.465       .  S
C297        C820   1.476       .  S
C298        C541   1.477       .  S
O299       Cu307   2.006       .  S
O299        C309   1.277       .  A
O300       Cu307   2.007   1_556  S
O300        C310   1.277       .  A
O301       Cu307   2.007   1_556  S
O301        C311   1.277       .  A
O302       Cu307   2.010       .  S
O302        C312   1.278       .  A
O303       Cu308   2.009       .  S
O303        C312   1.277       .  A
O304       Cu308   2.010   1_556  S
O304        C311   1.277       .  A
O305       Cu308   2.006   1_556  S
O305        C310   1.277       .  A
O306       Cu308   2.004       .  S
O306        C309   1.277       .  A
Cu307      Cu308   2.379       .  S
C309        C604   1.465       .  S
C310        C988   1.464       .  S
C311       C1045   1.468       .  S
C312        C676   1.470       .  S
C313        C314   1.403       .  A
C313        C318   1.411       .  A
C314        C315   1.395       .  A
C314        H319   1.084       .  S
C315        C316   1.407       .  A
C315        O320   1.372       .  S
C316        C317   1.404       .  A
C317        C318   1.406       .  A
C317        H321   1.083       .  S
C318        O322   1.371       .  S
O320        H324   0.992       .  S
O322        H323   0.991       .  S
C325        C326   1.406       .  A
C325        C330   1.406       .  A
C326        C327   1.405       .  A
C326        H331   1.083       .  S
C327        C328   1.407       .  A
C327        O332   1.371       .  S
C328        C329   1.400       .  A
C329        C330   1.396       .  A
C329        H333   1.084       .  S
C330        O334   1.373       .  S
O332        H336   0.992       .  S
O334        H335   0.991       .  S
C337        C338   1.402       .  A
C337        C342   1.406       .  A
C338        C339   1.399       .  A
C338        H343   1.083       .  S
C339        C340   1.410       .  A
C339        O344   1.372       .  S
C340        C341   1.404       .  A
C341        C342   1.397       .  A
C341        H345   1.084       .  S
C342        O346   1.372       .  S
O344        H348   0.992       .  S
O346        H347   0.991       .  S
C349        C350   1.400       .  A
C349        C354   1.404       .  A
C350        C351   1.401       .  A
C350        H355   1.084       .  S
C351        C352   1.409       .  A
C351        O356   1.373       .  S
C352        C353   1.402       .  A
C353        C354   1.396       .  A
C353        H357   1.084       .  S
C354        O358   1.372       .  S
O356        H360   0.992       .  S
O358        H359   0.992   1_655  S
C361        C362   1.405       .  A
C361        C366   1.409       .  A
C362        C363   1.404       .  A
C362        H367   1.084       .  S
C363        C364   1.408       .  A
C363        O368   1.373       .  S
C364        C365   1.404       .  A
C365        C366   1.400       .  A
C365        H369   1.084       .  S
C366        O370   1.372       .  S
O368        H372   0.992       .  S
O370        H371   0.992       .  S
C373        C374   1.402       .  A
C373        C378   1.405       .  A
C374        C375   1.400       .  A
C374        H379   1.083       .  S
C375        C376   1.407       .  A
C375        O380   1.371       .  S
C376        C377   1.401       .  A
C377        C378   1.399       .  A
C377        H381   1.084       .  S
C378        O382   1.372       .  S
O380        H384   0.992       .  S
O382        H383   0.991       .  S
C385        C386   1.403       .  A
C385        C390   1.410       .  A
C386        C387   1.394       .  A
C386        H391   1.084       .  S
C387        C388   1.406       .  A
C387        O392   1.372       .  S
C388        C389   1.403       .  A
C389        C390   1.407       .  A
C389        H393   1.083       .  S
C390        O394   1.372       .  S
O392        H396   0.992       .  S
O394        H395   0.992       .  S
C397        C398   1.404       .  A
C397        C402   1.410       .  A
C398        C399   1.399       .  A
C398        H403   1.084       .  S
C399        C400   1.406       .  A
C399        O404   1.373       .  S
C400        C401   1.403       .  A
C401        C402   1.400       .  A
C401        H405   1.083       .  S
C402        O406   1.371       .  S
O404        H408   0.991       .  S
O406        H407   0.992       .  S
C409        C410   1.402       .  A
C409        C414   1.407       .  A
C410        C411   1.399       .  A
C410        H415   1.083       .  S
C411        C412   1.406       .  A
C411        O416   1.370       .  S
C412        C413   1.400       .  A
C413        C414   1.396       .  A
C413        H417   1.084       .  S
C414        O418   1.372       .  S
O416        H420   0.992       .  S
O418        H419   0.991       .  S
C421        C422   1.400       .  A
C421        C426   1.406       .  A
C422        C423   1.397       .  A
C422        H427   1.084       .  S
C423        C424   1.407       .  A
C423        O428   1.372       .  S
C424        C425   1.402       .  A
C425        C426   1.399       .  A
C425        H429   1.083       .  S
C426        O430   1.371       .  S
O428        H432   0.991       .  S
O430        H431   0.992       .  S
C433        C434   1.403       .  A
C433        C438   1.405       .  A
C434        C435   1.400       .  A
C434        H439   1.083       .  S
C435        C436   1.410       .  A
C435        O440   1.371       .  S
C436        C437   1.404       .  A
C437        C438   1.399       .  A
C437        H441   1.084       .  S
C438        O442   1.373       .  S
O440        H444   0.992       .  S
O442        H443   0.991       .  S
C445        C446   1.405       .  A
C445        C450   1.408       .  A
C446        C447   1.403       .  A
C446        H451   1.080       .  S
C447        C448   1.406       .  A
C447        O452   1.371       .  S
C448        C449   1.401       .  A
C449        C450   1.397       .  A
C449        H453   1.084       .  S
C450        O454   1.373       .  S
O452        H456   0.992       .  S
O454        H455   0.992       .  S
C457        C458   1.405       .  A
C457        C462   1.408       .  A
C458        C459   1.406       .  A
C458        H463   1.083       .  S
C459        C460   1.409       .  A
C459        O464   1.371       .  S
C460        C461   1.401       .  A
C461        C462   1.395       .  A
C461        H465   1.084       .  S
C462        O466   1.372       .  S
O464        H468   0.992       .  S
O466        H467   0.992       .  S
C469        C470   1.404       .  A
C469        C474   1.410       .  A
C470        C471   1.400       .  A
C470        H475   1.084       .  S
C471        C472   1.407       .  A
C471        O476   1.373       .  S
C472        C473   1.402       .  A
C473        C474   1.400       .  A
C473        H477   1.081       .  S
C474        O478   1.372       .  S
O476        H480   0.991       .  S
O478        H479   0.992       .  S
C481        C482   1.403       .  A
C481        C486   1.408       .  A
C482        C483   1.400       .  A
C482        H487   1.084       .  S
C483        C484   1.406       .  A
C483        O488   1.372       .  S
C484        C485   1.401       .  A
C485        C486   1.402       .  A
C485        H489   1.083       .  S
C486        O490   1.371       .  S
O488        H492   0.991       .  S
O490        H491   0.991       .  S
C493        C494   1.400       .  A
C493        C498   1.407       .  A
C494        C495   1.396       .  A
C494        H499   1.084       .  S
C495        C496   1.404       .  A
C495        O500   1.370       .  S
C496        C497   1.403       .  A
C497        C498   1.403       .  A
C497        H501   1.084       .  S
C498        O502   1.373       .  S
O500        H504   0.992       .  S
O502        H503   0.991       .  S
C505        C506   1.403       .  A
C505        C510   1.410       .  A
C506        C507   1.398       .  A
C506        H511   1.084       .  S
C507        C508   1.407       .  A
C507        O512   1.372       .  S
C508        C509   1.400       .  A
C509        C510   1.396       .  A
C509        H513   1.083       .  S
C510        O514   1.372       .  S
O512        H516   0.992       .  S
O514        H515   0.992       .  S
C517        C518   1.402       .  A
C517        C522   1.406       .  A
C518        C519   1.399       .  A
C518        H523   1.083       .  S
C519        C520   1.410       .  A
C519        O524   1.372       .  S
C520        C521   1.404       .  A
C521        C522   1.399       .  A
C521        H525   1.084       .  S
C522        O526   1.373       .  S
O524        H528   0.992       .  S
O526        H527   0.991       .  S
C529        C530   1.402       .  A
C529        C534   1.406       .  A
C530        C531   1.400       .  A
C530        H535   1.083       .  S
C531        C532   1.407       .  A
C531        O536   1.370       .  S
C532        C533   1.402       .  A
C533        C534   1.399       .  A
C533        H537   1.084       .  S
C534        O538   1.372       .  S
O536        H540   0.992       .  S
O538        H539   0.991       .  S
C541        C542   1.404       .  A
C541        C546   1.409       .  A
C542        C543   1.400       .  A
C542        H547   1.084       .  S
C543        C544   1.406       .  A
C543        O548   1.373       .  S
C544        C545   1.403       .  A
C545        C546   1.400       .  A
C545        H549   1.082       .  S
C546        O550   1.371       .  S
O548        H552   0.991       .  S
O550        H551   0.992       .  S
C553        C554   1.403       .  A
C553        C558   1.408       .  A
C554        C555   1.402       .  A
C554        H559   1.083       .  S
C555        C556   1.407       .  A
C555        O560   1.371       .  S
C556        C557   1.401       .  A
C557        C558   1.399       .  A
C557        H561   1.084       .  S
C558        O562   1.372       .  S
O560        H564   0.992       .  S
O562        H563   0.991       .  S
C565        C566   1.403       .  A
C565        C570   1.406       .  A
C566        C567   1.407       .  A
C566        H571   1.083       .  S
C567        C568   1.410       .  A
C567        O572   1.372       .  S
C568        C569   1.403       .  A
C569        C570   1.394       .  A
C569        H573   1.084       .  S
C570        O574   1.372       .  S
O572        H576   0.992       .  S
O574        H575   0.992       .  S
C577        C578   1.401       .  A
C577        C582   1.406       .  A
C578        C579   1.394       .  A
C578        H583   1.084       .  S
C579        C580   1.405       .  A
C579        O584   1.372       .  S
C580        C581   1.405       .  A
C581        C582   1.407       .  A
C581        H585   1.083       .  S
C582        O586   1.371       .  S
O584        H588   0.992       .  S
O586        H587   0.992       .  S
C589        C590   1.403       .  A
C589        C594   1.406       .  A
C590        C591   1.404       .  A
C590        H595   1.083       .  S
C591        C592   1.407       .  A
C591        O596   1.371       .  S
C592        C593   1.399       .  A
C593        C594   1.395       .  A
C593        H597   1.084       .  S
C594        O598   1.374       .  S
O596        H600   0.992       .  S
O598        H599   0.991       .  S
C601        C602   1.400       .  A
C601        C606   1.406       .  A
C602        C603   1.396       .  A
C602        H607   1.083       .  S
C603        C604   1.404       .  A
C603        O608   1.369       .  S
C604        C605   1.401       .  A
C605        C606   1.400       .  A
C605        H609   1.084       .  S
C606        O610   1.371       .  S
O608        H612   0.992       .  S
O610        H611   0.992       .  S
C613        C614   1.402       .  A
C613        C618   1.406       .  A
C614        C615   1.402       .  A
C614        H619   1.084       .  S
C615        C616   1.406       .  A
C615        O620   1.372       .  S
C616        C617   1.402       .  A
C617        C618   1.398       .  A
C617        H621   1.084       .  S
C618        O622   1.372       .  S
O620        H624   0.992       .  S
O622        H623   0.992       .  S
C625        C626   1.401       .  A
C625        C630   1.405       .  A
C626        C627   1.398       .  A
C626        H631   1.084       .  S
C627        C628   1.407       .  A
C627        O632   1.372       .  S
C628        C629   1.403       .  A
C629        C630   1.403       .  A
C629        H633   1.084       .  S
C630        O634   1.373       .  S
O632        H636   0.992       .  S
O634        H635   0.992       .  S
C637        C638   1.403       .  A
C637        C642   1.408       .  A
C638        C639   1.399       .  A
C638        H643   1.084       .  S
C639        C640   1.410       .  A
C639        O644   1.372       .  S
C640        C641   1.404       .  A
C641        C642   1.402       .  A
C641        H645   1.084       .  S
C642        O646   1.372       .  S
O644        H648   0.992       .  S
O646        H647   0.992       .  S
C649        C650   1.403       .  A
C649        C654   1.409       .  A
C650        C651   1.396       .  A
C650        H655   1.084       .  S
C651        C652   1.405       .  A
C651        O656   1.372       .  S
C652        C653   1.403       .  A
C653        C654   1.407       .  A
C653        H657   1.083       .  S
C654        O658   1.372       .  S
O656        H660   0.992       .  S
O658        H659   0.992       .  S
C661        C662   1.403       .  A
C661        C666   1.410       .  A
C662        C663   1.396       .  A
C662        H667   1.084       .  S
C663        C664   1.406       .  A
C663        O668   1.371       .  S
C664        C665   1.402       .  A
C665        C666   1.400       .  A
C665        H669   1.083       .  S
C666        O670   1.371       .  S
O668        H672   0.992       .  S
O670        H671   0.992       .  S
C673        C674   1.400       .  A
C673        C678   1.405       .  A
C674        C675   1.402       .  A
C674        H679   1.084       .  S
C675        C676   1.408       .  A
C675        O680   1.372       .  S
C676        C677   1.402       .  A
C677        C678   1.398       .  A
C677        H681   1.084       .  S
C678        O682   1.372       .  S
O680        H684   0.992       .  S
O682        H683   0.991       .  S
C685        C686   1.403       .  A
C685        C690   1.405       .  A
C686        C687   1.400       .  A
C686        H691   1.083       .  S
C687        C688   1.409       .  A
C687        O692   1.371       .  S
C688        C689   1.404       .  A
C689        C690   1.400       .  A
C689        H693   1.084       .  S
C690        O694   1.373       .  S
O692        H696   0.992       .  S
O694        H695   0.991       .  S
C697        C698   1.402       .  A
C697        C702   1.407       .  A
C698        C699   1.398       .  A
C698        H703   1.084       .  S
C699        C700   1.406       .  A
C699        O704   1.372       .  S
C700        C701   1.403       .  A
C701        C702   1.403       .  A
C701        H705   1.084       .  S
C702        O706   1.372       .  S
O704        H708   0.992       .  S
O706        H707   0.992       .  S
C709        C710   1.404       .  A
C709        C714   1.406       .  A
C710        C711   1.406       .  A
C710        H715   1.083       .  S
C711        C712   1.409       .  A
C711        O716   1.372       .  S
C712        C713   1.403       .  A
C713        C714   1.393       .  A
C713        H717   1.084       .  S
C714        O718   1.372       .  S
O716        H720   0.991       .  S
O718        H719   0.992       .  S
C721        C722   1.405       .  A
C721        C726   1.411       .  A
C722        C723   1.396       .  A
C722        H727   1.084       .  S
C723        C724   1.405       .  A
C723        O728   1.372       .  S
C724        C725   1.403       .  A
C725        C726   1.406       .  A
C725        H729   1.084       .  S
C726        O730   1.372       .  S
O728        H732   0.992       .  S
O730        H731   0.992       .  S
C733        C734   1.405       .  A
C733        C738   1.410       .  A
C734        C735   1.405       .  A
C734        H739   1.083       .  S
C735        C736   1.411       .  A
C735        O740   1.374       .  S
C736        C737   1.401       .  A
C737        C738   1.395       .  A
C737        H741   1.078       .  S
C738        O742   1.372       .  S
O740        H744   0.992       .  S
O742        H743   0.991       .  S
C745        C746   1.402       .  A
C745        C750   1.407       .  A
C746        C747   1.401       .  A
C746        H751   1.083       .  S
C747        C748   1.407       .  A
C747        O752   1.371       .  S
C748        C749   1.400       .  A
C749        C750   1.398       .  A
C749        H753   1.084       .  S
C750        O754   1.373       .  S
O752        H756   0.992       .  S
O754        H755   0.992       .  S
C757        C758   1.404       .  A
C757        C762   1.406       .  A
C758        C759   1.398       .  A
C758        H763   1.083       .  S
C759        C760   1.406       .  A
C759        O764   1.372       .  S
C760        C761   1.403       .  A
C761        C762   1.400       .  A
C761        H765   1.084       .  S
C762        O766   1.371       .  S
O764        H768   0.992       .  S
O766        H767   0.992       .  S
C769        C770   1.404       .  A
C769        C774   1.407       .  A
C770        C771   1.405       .  A
C770        H775   1.084       .  S
C771        C772   1.406       .  A
C771        O776   1.372       .  S
C772        C773   1.400       .  A
C773        C774   1.396       .  A
C773        H777   1.084       .  S
C774        O778   1.372       .  S
O776        H780   0.992       .  S
O778        H779   0.992       .  S
C781        C782   1.402       .  A
C781        C786   1.408       .  A
C782        C783   1.395       .  A
C782        H787   1.084       .  S
C783        C784   1.406       .  A
C783        O788   1.372       .  S
C784        C785   1.403       .  A
C785        C786   1.404       .  A
C785        H789   1.083       .  S
C786        O790   1.370       .  S
O788        H792   0.992       .  S
O790        H791   0.991       .  S
C793        C794   1.404       .  A
C793        C798   1.405       .  A
C794        C795   1.405       .  A
C794        H799   1.083       .  S
C795        C796   1.407       .  A
C795        O800   1.371       .  S
C796        C797   1.399       .  A
C797        C798   1.395       .  A
C797        H801   1.084       .  S
C798        O802   1.373       .  S
O800        H804   0.992       .  S
O802        H803   0.991       .  S
C805        C806   1.403       .  A
C805        C810   1.406       .  A
C806        C807   1.400       .  A
C806        H811   1.083       .  S
C807        C808   1.407       .  A
C807        O812   1.372       .  S
C808        C809   1.400       .  A
C809        C810   1.397       .  A
C809        H813   1.084       .  S
C810        O814   1.372       .  S
O812        H816   0.992       .  S
O814        H815   0.991       .  S
C817        C818   1.401       .  A
C817        C822   1.406       .  A
C818        C819   1.396       .  A
C818        H823   1.083       .  S
C819        C820   1.409       .  A
C819        O824   1.372       .  S
C820        C821   1.405       .  A
C821        C822   1.403       .  A
C821        H825   1.084       .  S
C822        O826   1.373       .  S
O824        H828   0.992       .  S
O826        H827   0.992       .  S
C829        C830   1.402       .  A
C829        C834   1.406       .  A
C830        C831   1.398       .  A
C830        H835   1.084       .  S
C831        C832   1.409       .  A
C831        O836   1.372       .  S
C832        C833   1.404       .  A
C833        C834   1.402       .  A
C833        H837   1.084       .  S
C834        O838   1.372       .  S
O836        H840   0.992       .  S
O838        H839   0.991       .  S
C841        C842   1.400       .  A
C841        C846   1.406       .  A
C842        C843   1.400       .  A
C842        H847   1.084       .  S
C843        C844   1.407       .  A
C843        O848   1.372       .  S
C844        C845   1.403       .  A
C845        C846   1.399       .  A
C845        H849   1.083       .  S
C846        O850   1.372       .  S
O848        H852   0.992       .  S
O850        H851   0.992       .  S
C853        C854   1.403       .  A
C853        C858   1.405       .  A
C854        C855   1.403       .  A
C854        H859   1.083       .  S
C855        C856   1.406       .  A
C855        O860   1.370       .  S
C856        C857   1.401       .  A
C857        C858   1.393       .  A
C857        H861   1.084       .  S
C858        O862   1.372       .  S
O860        H864   0.991       .  S
O862        H863   0.992       .  S
C865        C866   1.402       .  A
C865        C870   1.408       .  A
C866        C867   1.403       .  A
C866        H871   1.082       .  S
C867        C868   1.407       .  A
C867        O872   1.371       .  S
C868        C869   1.399       .  A
C869        C870   1.394       .  A
C869        H873   1.084       .  S
C870        O874   1.373       .  S
O872        H876   0.991       .  S
O874        H875   0.991       .  S
C877        C878   1.406       .  A
C877        C882   1.408       .  A
C878        C879   1.404       .  A
C878        H883   1.082       .  S
C879        C880   1.407       .  A
C879        O884   1.371       .  S
C880        C881   1.402       .  A
C881        C882   1.395       .  A
C881        H885   1.084       .  S
C882        O886   1.372       .  S
O884        H888   0.992       .  S
O886        H887   0.992       .  S
C889        C890   1.400       .  A
C889        C894   1.401       .  A
C890        C891   1.406       .  A
C890        H895   1.084       .  S
C891        C892   1.413       .  A
C891        O896   1.373       .  S
C892        C893   1.407       .  A
C893        C894   1.397       .  A
C893        H897   1.077       .  S
C894        O898   1.372       .  S
O896        H900   0.992       .  S
O898        H899   0.991       .  S
C901        C902   1.402       .  A
C901        C906   1.405       .  A
C902        C903   1.401       .  A
C902        H907   1.082       .  S
C903        C904   1.408       .  A
C903        O908   1.371       .  S
C904        C905   1.403       .  A
C905        C906   1.399       .  A
C905        H909   1.084       .  S
C906        O910   1.372       .  S
O908        H912   0.992       .  S
O910        H911   0.991       .  S
C913        C914   1.401       .  A
C913        C918   1.405       .  A
C914        C915   1.397       .  A
C914        H919   1.084       .  S
C915        C916   1.406       .  A
C915        O920   1.372       .  S
C916        C917   1.403       .  A
C917        C918   1.402       .  A
C917        H921   1.084       .  S
C918        O922   1.373       .  S
O920        H924   0.992       .  S
O922        H923   0.991       .  S
C925        C926   1.403       .  A
C925        C930   1.408       .  A
C926        C927   1.395       .  A
C926        H931   1.084       .  S
C927        C928   1.410       .  A
C927        O932   1.372       .  S
C928        C929   1.406       .  A
C929        C930   1.403       .  A
C929        H933   1.083       .  S
C930        O934   1.373       .  S
O932        H936   0.992       .  S
O934        H935   0.992       .  S
C937        C938   1.400       .  A
C937        C942   1.407       .  A
C938        C939   1.398       .  A
C938        H943   1.084       .  S
C939        C940   1.408       .  A
C939        O944   1.374       .  S
C940        C941   1.405       .  A
C941        C942   1.404       .  A
C941        H945   1.082       .  S
C942        O946   1.371       .  S
O944        H948   0.992       .  S
O946        H947   0.992       .  S
C949        C950   1.403       .  A
C949        C954   1.410       .  A
C950        C951   1.395       .  A
C950        H955   1.084       .  S
C951        C952   1.406       .  A
C951        O956   1.372       .  S
C952        C953   1.404       .  A
C953        C954   1.408       .  A
C953        H957   1.083       .  S
C954        O958   1.372       .  S
O956        H960   0.992       .  S
O958        H959   0.992       .  S
C961        C962   1.404       .  A
C961        C966   1.409       .  A
C962        C963   1.403       .  A
C962        H967   1.083       .  S
C963        C964   1.408       .  A
C963        O968   1.371       .  S
C964        C965   1.400       .  A
C965        C966   1.395       .  A
C965        H969   1.084       .  S
C966        O970   1.372       .  S
O968        H972   0.992       .  S
O970        H971   0.992       .  S
C973        C974   1.404       .  A
C973        C978   1.409       .  A
C974        C975   1.400       .  A
C974        H979   1.084       .  S
C975        C976   1.406       .  A
C975        O980   1.373       .  S
C976        C977   1.402       .  A
C977        C978   1.401       .  A
C977        H981   1.082       .  S
C978        O982   1.371       .  S
O980        H984   0.991       .  S
O982        H983   0.992       .  S
C985        C986   1.402       .  A
C985        C990   1.408       .  A
C986        C987   1.398       .  A
C986        H991   1.084       .  S
C987        C988   1.405       .  A
C987        O992   1.370       .  S
C988        C989   1.400       .  A
C989        C990   1.400       .  A
C989        H993   1.084       .  S
C990        O994   1.372       .  S
O992        H996   0.992       .  S
O994        H995   0.992       .  S
C997        C998   1.402       .  A
C997       C1002   1.406       .  A
C998        C999   1.399       .  A
C998       H1003   1.084       .  S
C999       C1000   1.406       .  A
C999       O1004   1.371       .  S
C1000      C1001   1.404       .  A
C1001      C1002   1.402       .  A
C1001      H1005   1.084       .  S
C1002      O1006   1.371       .  S
O1004      H1008   0.992       .  S
O1006      H1007   0.992       .  S
C1009      C1010   1.403       .  A
C1009      C1014   1.408       .  A
C1010      C1011   1.398       .  A
C1010      H1015   1.084       .  S
C1011      C1012   1.410       .  A
C1011      O1016   1.372       .  S
C1012      C1013   1.405       .  A
C1013      C1014   1.404       .  A
C1013      H1017   1.083       .  S
C1014      O1018   1.373       .  S
O1016      H1020   0.992       .  S
O1018      H1019   0.992       .  S
C1021      C1022   1.404       .  A
C1021      C1026   1.407       .  A
C1022      C1023   1.406       .  A
C1022      H1027   1.083       .  S
C1023      C1024   1.408       .  A
C1023      O1028   1.371       .  S
C1024      C1025   1.400       .  A
C1025      C1026   1.395       .  A
C1025      H1029   1.084       .  S
C1026      O1030   1.372       .  S
O1028      H1032   0.992       .  S
O1030      H1031   0.992       .  S
C1033      C1034   1.400       .  A
C1033      C1038   1.406       .  A
C1034      C1035   1.399       .  A
C1034      H1039   1.082       .  S
C1035      C1036   1.407       .  A
C1035      O1040   1.371       .  S
C1036      C1037   1.402       .  A
C1037      C1038   1.399       .  A
C1037      H1041   1.084       .  S
C1038      O1042   1.371       .  S
O1040      H1044   0.992       .  S
O1042      H1043   0.992       .  S
C1045      C1046   1.402       .  A
C1045      C1050   1.406       .  A
C1046      C1047   1.399       .  A
C1046      H1051   1.084       .  S
C1047      C1048   1.406       .  A
C1047      O1052   1.372       .  S
C1048      C1049   1.401       .  A
C1049      C1050   1.399       .  A
C1049      H1053   1.083       .  S
C1050      O1054   1.370       .  S
O1052      H1056   0.992       .  S
O1054      H1055   0.992       .  S
C1057      C1058   1.401       .  A
C1057      C1062   1.406       .  A
C1058      C1059   1.398       .  A
C1058      H1063   1.084       .  S
C1059      C1060   1.408       .  A
C1059      O1064   1.372       .  S
C1060      C1061   1.404       .  A
C1061      C1062   1.404       .  A
C1061      H1065   1.084       .  S
C1062      O1066   1.374       .  S
O1064      H1068   0.992       .  S
O1066      H1067   0.992       .  S
C1069      C1070   1.402       .  A
C1069      C1074   1.407       .  A
C1070      C1071   1.399       .  A
C1070      H1075   1.084       .  S
C1071      C1072   1.409       .  A
C1071      O1076   1.372       .  S
C1072      C1073   1.404       .  A
C1073      C1074   1.404       .  A
C1073      H1077   1.084       .  S
C1074      O1078   1.374       .  S
O1076      H1080   0.992       .  S
O1078      H1079   0.992       .  S
C1081      C1082   1.403       .  A
C1081      C1086   1.406       .  A
C1082      C1083   1.407       .  A
C1082      H1087   1.083       .  S
C1083      C1084   1.409       .  A
C1083      O1088   1.372       .  S
C1084      C1085   1.403       .  A
C1085      C1086   1.395       .  A
C1085      H1089   1.084       .  S
C1086      O1090   1.372       .  S
O1088      H1092   0.992       .  S
O1090      H1091   0.992       .  S
C1093      C1094   1.400       .  A
C1093      C1098   1.407       .  A
C1094      C1095   1.395       .  A
C1094      H1099   1.084       .  S
C1095      C1096   1.405       .  A
C1095      O1100   1.373       .  S
C1096      C1097   1.404       .  A
C1097      C1098   1.405       .  A
C1097      H1101   1.083       .  S
C1098      O1102   1.371       .  S
O1100      H1104   0.991       .  S
O1102      H1103   0.992       .  S
C1105      C1106   1.404       .  A
C1105      C1110   1.406       .  A
C1106      C1107   1.407       .  A
C1106      H1111   1.083       .  S
C1107      C1108   1.409       .  A
C1107      O1112   1.372       .  S
C1108      C1109   1.403       .  A
C1109      C1110   1.394       .  A
C1109      H1113   1.084       .  S
C1110      O1114   1.372       .  S
O1112      H1116   0.992       .  S
O1114      H1115   0.992       .  S
C1117      C1118   1.405       .  A
C1117      C1122   1.408       .  A
C1118      C1119   1.403       .  A
C1118      H1123   1.083       .  S
C1119      C1120   1.407       .  A
C1119      O1124   1.371       .  S
C1120      C1121   1.400       .  A
C1121      C1122   1.393       .  A
C1121      H1125   1.084       .  S
C1122      O1126   1.372       .  S
O1124      H1128   0.992       .  S
O1126      H1127   0.992       .  S
C1129      C1130   1.403       .  A
C1129      C1134   1.408       .  A
C1130      C1131   1.396       .  A
C1130      H1135   1.084       .  S
C1131      C1132   1.403       .  A
C1131      O1136   1.372       .  S
C1132      C1133   1.401       .  A
C1133      C1134   1.401       .  A
C1133      H1137   1.084       .  S
C1134      O1138   1.373       .  S
O1136      H1140   0.992   1_655  S
O1138      H1139   0.992       .  S
C1141      C1142   1.404       .  A
C1141      C1146   1.410       .  A
C1142      C1143   1.401       .  A
C1142      H1147   1.084       .  S
C1143      C1144   1.406       .  A
C1143      O1148   1.372       .  S
C1144      C1145   1.402       .  A
C1145      C1146   1.400       .  A
C1145      H1149   1.082       .  S
C1146      O1150   1.371       .  S
O1148      H1152   0.991       .  S
O1150      H1151   0.992       .  S
C1153      C1154   1.400       .  A
C1153      C1158   1.406       .  A
C1154      C1155   1.398       .  A
C1154      H1159   1.084       .  S
C1155      C1156   1.406       .  A
C1155      O1160   1.371       .  S
C1156      C1157   1.404       .  A
C1157      C1158   1.401       .  A
C1157      H1161   1.084       .  S
C1158      O1162   1.371       .  S
O1160      H1164   0.992   1_556  S
O1162      H1163   0.992       .  S
C1165      C1166   1.405       .  A
C1165      C1170   1.410       .  A
C1166      C1167   1.405       .  A
C1166      H1171   1.084       .  S
C1167      C1168   1.409       .  A
C1167      O1172   1.373       .  S
C1168      C1169   1.402       .  A
C1169      C1170   1.397       .  A
C1169      H1173   1.084       .  S
C1170      O1174   1.372       .  S
O1172      H1176   0.992       .  S
O1174      H1175   0.991       .  S
