geometry optimzed in LAMMPS
_audit_creation_date              2020-11-30 
_audit_creation_method            'lammps2cif' 
_symmetry_space_group_name_H-M    'P1' 
_symmetry_Int_Tables_number       1 
_symmetry_cell_setting            triclinic 
loop_ 
_symmetry_equiv_pos_as_xyz 
  x,y,z 
_cell_length_a                    110.41966213 
_cell_length_b                    110.07553780483121 
_cell_length_c                    110.03542696669744 
_cell_angle_alpha                 90.03708645713367 
_cell_angle_beta                  90.02783807086777 
_cell_angle_gamma                 90.0132307294521 
loop_ 
_atom_site_label 
_atom_site_type_symbol 
_atom_site_fract_x 
_atom_site_fract_y 
_atom_site_fract_z 
_atom_site_charge 
N1          N  0.75053949  0.91251919  0.40086701    -0.03300
C2          C  0.75574267  0.90136000  0.40053104    -0.00700
C3          C  0.75053133  0.89435606  0.39149890    -0.23600
C4          C  0.74170190  0.90137808  0.38620694    -0.23800
C5          C  0.74189983  0.91247335  0.39210728    -0.00800
H6          H  0.75267511  0.88503337  0.38923285     0.13000
H7          H  0.73583311  0.89870858  0.37879101     0.13000
N8          N  0.77015184  0.91002483  0.59396655    -0.03300
C9          C  0.76377490  0.90855690  0.60438684    -0.00700
C10         C  0.76720721  0.89791485  0.61011510    -0.23600
C11         C  0.77603077  0.89269533  0.60297940    -0.23800
C12         C  0.77757244  0.90026135  0.59307646    -0.00800
H13         H  0.76367524  0.89432864  0.61855451     0.13000
H14         H  0.78046518  0.88407749  0.60458599     0.13000
N15         N  0.74153923  0.10088042  0.39724507    -0.03300
C16         C  0.74610364  0.11230249  0.39786705    -0.00700
C17         C  0.74305013  0.11879473  0.38756770    -0.23600
C18         C  0.73650174  0.11103641  0.38028018    -0.23800
C19         C  0.73565410  0.10011627  0.38645132    -0.00800
H20         H  0.74549744  0.12808278  0.38548323     0.13000
H21         H  0.73260373  0.11320072  0.37152004     0.13000
N22         N  0.73868127  0.10328294  0.59610054    -0.03300
C23         C  0.73348127  0.10235984  0.60721008    -0.00700
C24         C  0.73425205  0.11335881  0.61327086    -0.23600
C25         C  0.74010187  0.12130553  0.60557747    -0.23800
C26         C  0.74283740  0.11482399  0.59517301    -0.00800
H27         H  0.73098610  0.11537128  0.62232136     0.13000
H28         H  0.74250996  0.13063067  0.60755185     0.13000
O29         O  0.74613542  0.01831331  0.48553525    -0.71600
O30         O  0.75004156  0.99480407  0.51049277    -0.71800
O31         O  0.74604773  0.01881114  0.50995955    -0.71700
O32         O  0.75003406  0.99429943  0.48617099    -0.71700
O33         O  0.76941120  0.99761374  0.48578768    -0.71700
O34         O  0.76545642  0.02193739  0.51018188    -0.71700
O35         O  0.76947003  0.99780844  0.51027865    -0.71600
O36         O  0.76550050  0.02170672  0.48568120    -0.71800
V37         V  0.74845485  0.00663464  0.49803990     1.35200
V38         V  0.76709534  0.00971434  0.49799483     1.35200
C39         C  0.75516115  0.02397409  0.48128053     0.77600
C40         C  0.76043030  0.99222037  0.51459209     0.77700
C41         C  0.75502897  0.02450029  0.51423730     0.77500
C42         C  0.76033109  0.99178238  0.48185005     0.77500
N43         N  0.90375391  0.73587280  0.40688186    -0.03300
C44         C  0.90388726  0.72957438  0.39629194    -0.00700
C45         C  0.89228265  0.72846598  0.39168965    -0.23600
C46         C  0.88472740  0.73422403  0.39976565    -0.23800
C47         C  0.89200679  0.73873889  0.40894259    -0.00800
H48         H  0.88959734  0.72393011  0.38338554     0.13000
H49         H  0.87504237  0.73539361  0.39880728     0.13000
N50         N  0.90256097  0.75229502  0.59068296    -0.03300
C51         C  0.90229085  0.74755584  0.60205730    -0.00700
C52         C  0.89082765  0.74872182  0.60696592    -0.23600
C53         C  0.88376771  0.75419664  0.59823865    -0.23800
C54         C  0.89118516  0.75631603  0.58832973    -0.00800
H55         H  0.88781716  0.74558269  0.61578582     0.13000
H56         H  0.87426435  0.75644566  0.59906690     0.13000
N57         N  0.10129256  0.74438587  0.40183845    -0.03300
C58         C  0.10102296  0.73794718  0.39134419    -0.00700
C59         C  0.11112719  0.74059797  0.38440116    -0.23600
C60         C  0.11772793  0.74909076  0.39080552    -0.23800
C61         C  0.11150704  0.75120005  0.40150479    -0.00800
H62         H  0.11329577  0.73701326  0.37550509     0.13000
H63         H  0.12617535  0.75320709  0.38799844     0.13000
N64         N  0.09751911  0.75202247  0.60124511    -0.03300
C65         C  0.09706234  0.74716308  0.61254010    -0.00700
C66         C  0.10766629  0.74960724  0.61878914    -0.23600
C67         C  0.11486389  0.75628823  0.61108536    -0.23800
C68         C  0.10844738  0.75752971  0.60037694    -0.00800
H69         H  0.10984995  0.74699008  0.62801157     0.13000
H70         H  0.12386191  0.75968505  0.61300562     0.13000
O71         O  0.01716961  0.73666374  0.48828916    -0.71600
O72         O  0.99194882  0.73893131  0.51164967    -0.71800
O73         O  0.99284952  0.73728715  0.48721609    -0.71700
O74         O  0.01619484  0.73827750  0.51259365    -0.71700
O75         O  0.01689247  0.75793626  0.51121712    -0.71700
O76         O  0.99327505  0.75696273  0.48602815    -0.71700
O77         O  0.99260677  0.75860410  0.51045595    -0.71600
O78         O  0.01761864  0.75633287  0.48692892    -0.71800
V79         V  0.00453039  0.73817326  0.49989794     1.35200
V80         V  0.00506796  0.75707548  0.49866891     1.35200
C81         C  0.02178351  0.74612844  0.48370887     0.77600
C82         C  0.98811894  0.74916467  0.51520608     0.77700
C83         C  0.98907579  0.74694233  0.48225785     0.77500
C84         C  0.02057455  0.74826450  0.51621157     0.77500
N85         N  0.24553212  0.90685419  0.40543941    -0.03300
C86         C  0.23795644  0.89718919  0.40581957    -0.00700
C87         C  0.23881991  0.89048369  0.39523866    -0.23600
C88         C  0.24733876  0.89618331  0.38812442    -0.23800
C89         C  0.25127403  0.90624410  0.39456914    -0.00800
H90         H  0.23396420  0.88222923  0.39303632     0.13000
H91         H  0.25018124  0.89340820  0.37913078     0.13000
N92         N  0.24371279  0.90028163  0.60095444    -0.03300
C93         C  0.24990765  0.90066787  0.61157452    -0.00700
C94         C  0.24654662  0.89109336  0.61896224    -0.23600
C95         C  0.23783654  0.88467643  0.61270146    -0.23800
C96         C  0.23631477  0.89048293  0.60165522    -0.00800
H97         H  0.24988009  0.88913165  0.62800031     0.13000
H98         H  0.23327366  0.87654245  0.61578685     0.13000
N99         N  0.25621032  0.09363801  0.40565933    -0.03300
C100        C  0.25026862  0.10440626  0.40554960    -0.00700
C101        C  0.25194780  0.11019084  0.39452972    -0.23600
C102        C  0.25900190  0.10257992  0.38755120    -0.23800
C103        C  0.26151944  0.09249753  0.39462467    -0.00800
H104        H  0.24819128  0.11883224  0.39174693     0.13000
H105        H  0.26199687  0.10424447  0.37833870     0.13000
N106        N  0.25893438  0.10091247  0.60050813    -0.03300
C107        C  0.25470097  0.11240642  0.59941613    -0.00700
C108        C  0.25901098  0.11958091  0.60877930    -0.23600
C109        C  0.26603734  0.11216864  0.61598357    -0.23800
C110        C  0.26589554  0.10076822  0.61066725    -0.00800
H111        H  0.25703599  0.12908063  0.61035743     0.13000
H112        H  0.27082846  0.11484412  0.62413905     0.13000
O113        O  0.26069385  0.98706578  0.51822794    -0.71600
O114        O  0.26214293  0.01291685  0.49544041    -0.71800
O115        O  0.26153128  0.01147629  0.51977154    -0.71700
O116        O  0.26127784  0.98860480  0.49385417    -0.71700
O117        O  0.24163741  0.98931406  0.49342894    -0.71700
O118        O  0.24189357  0.01220622  0.51929903    -0.71700
O119        O  0.24250140  0.01360976  0.49492681    -0.71600
O120        O  0.24105363  0.98777288  0.51778762    -0.71800
V121        V  0.26102670  0.00002422  0.50683282     1.35200
V122        V  0.24215293  0.00071011  0.50639335     1.35200
C123        C  0.25063194  0.98293275  0.52184141     0.77600
C124        C  0.25258012  0.01761562  0.49121268     0.77700
C125        C  0.25175977  0.01587071  0.52386443     0.77500
C126        C  0.25141012  0.98511015  0.48915656     0.77500
N127        N  0.39855836  0.90721012  0.23433823    -0.03300
C128        C  0.39976242  0.89717786  0.22730902    -0.00700
C129        C  0.38891809  0.89091005  0.22676428    -0.23600
C130        C  0.38073108  0.89740587  0.23361147    -0.23800
C131        C  0.38691469  0.90732047  0.23822227    -0.00800
H132        H  0.38711459  0.88260731  0.22181084     0.13000
H133        H  0.37136838  0.89501244  0.23525401     0.13000
N134        N  0.59006710  0.89903683  0.25042763    -0.03300
C135        C  0.58950552  0.88794957  0.24504392    -0.00700
C136        C  0.59894460  0.88073940  0.24907872    -0.23600
C137        C  0.60557490  0.88766557  0.25710026    -0.23800
C138        C  0.59990845  0.89885376  0.25783095    -0.00800
H139        H  0.60094050  0.87151582  0.24632444     0.13000
H140        H  0.61359866  0.88479128  0.26196117     0.13000
N141        N  0.40280230  0.09956356  0.25348245    -0.03300
C142        C  0.40274249  0.11071463  0.24824064    -0.00700
C143        C  0.39276576  0.11724465  0.25213564    -0.23600
C144        C  0.38654738  0.10987649  0.26009193    -0.23800
C145        C  0.39285030  0.09903620  0.26067951    -0.00800
H146        H  0.39030463  0.12639658  0.24953462     0.13000
H147        H  0.37814375  0.11206167  0.26465245     0.13000
N148        N  0.58869379  0.10300239  0.25312826    -0.03300
C149        C  0.58716295  0.11451494  0.24911831    -0.00700
C150        C  0.59595071  0.12205894  0.25392990    -0.23600
C151        C  0.60324499  0.11485962  0.26107663    -0.23800
C152        C  0.59852620  0.10322853  0.26048408    -0.00800
H153        H  0.59706933  0.13167894  0.25224699     0.13000
H154        H  0.61102337  0.11782274  0.26628035     0.13000
O155        O  0.50971018  0.98837592  0.23419774    -0.71600
O156        O  0.48582110  0.01325546  0.23500296    -0.71800
O157        O  0.51012961  0.01281458  0.23411803    -0.71700
O158        O  0.48539536  0.98889377  0.23502110    -0.71700
O159        O  0.48605600  0.98884228  0.25473810    -0.71700
O160        O  0.51083589  0.01283134  0.25383426    -0.71700
O161        O  0.48652498  0.01323626  0.25471881    -0.71600
O162        O  0.51037862  0.98846892  0.25391512    -0.71800
V163        V  0.49778355  0.00082951  0.23496818     1.35200
V164        V  0.49843816  0.00084509  0.25391635     1.35200
C165        C  0.51412872  0.98417981  0.24394398     0.77600
C166        C  0.48207681  0.01747598  0.24501829     0.77700
C167        C  0.51470340  0.01693284  0.24381848     0.77500
C168        C  0.48145433  0.98481074  0.24500353     0.77500
N169        N  0.40436585  0.74523979  0.89731252    -0.03300
C170        C  0.40449288  0.75070837  0.88627073    -0.00700
C171        C  0.39463800  0.74697975  0.87945871    -0.23600
C172        C  0.38834752  0.73879244  0.88649226    -0.23800
C173        C  0.39449700  0.73791756  0.89740730    -0.00800
H174        H  0.39245696  0.74963538  0.87024676     0.13000
H175        H  0.38013094  0.73406515  0.88395550     0.13000
N176        N  0.59696336  0.74291561  0.90100446    -0.03300
C177        C  0.59745034  0.74804785  0.88984896    -0.00700
C178        C  0.60791188  0.74452385  0.88389877    -0.23600
C179        C  0.61398341  0.73682172  0.89167245    -0.23800
C180        C  0.60707032  0.73608890  0.90211792    -0.00800
H181        H  0.61075194  0.74715288  0.87486436     0.13000
H182        H  0.62261796  0.73248194  0.89000829     0.13000
N183        N  0.39700823  0.75494807  0.08860848    -0.03300
C184        C  0.39640474  0.76240862  0.09840071    -0.00700
C185        C  0.38510314  0.76161952  0.10374962    -0.23600
C186        C  0.37848783  0.75350869  0.09689956    -0.23800
C187        C  0.38603353  0.74949024  0.08770088    -0.00800
H188        H  0.38195055  0.76653624  0.11165772     0.13000
H189        H  0.36923708  0.75071949  0.09855965     0.13000
N190        N  0.59245601  0.74029411  0.09751834    -0.03300
C191        C  0.59072480  0.74542679  0.10858247    -0.00700
C192        C  0.60025668  0.74265391  0.11623802    -0.23600
C193        C  0.60823166  0.73573007  0.10956882    -0.23800
C194        C  0.60321534  0.73438859  0.09811685    -0.00800
H195        H  0.60148514  0.74568456  0.12551506     0.13000
H196        H  0.61675708  0.73206138  0.11274034     0.13000
O197        O  0.51073116  0.73961874  0.98444818    -0.71600
O198        O  0.48638887  0.73959820  0.00876740    -0.71800
O199        O  0.48652872  0.74044094  0.98434414    -0.71700
O200        O  0.51071163  0.73876599  0.00879401    -0.71700
O201        O  0.51151306  0.75846186  0.00941245    -0.71700
O202        O  0.48695808  0.76014373  0.98518565    -0.71700
O203        O  0.48720070  0.75928580  0.00961798    -0.71600
O204        O  0.51130200  0.75932638  0.98499356    -0.71800
V205        V  0.49859094  0.73999713  0.99661641     1.35200
V206        V  0.49922612  0.75892847  0.99729135     1.35200
C207        C  0.51513883  0.74946163  0.98052213     0.77600
C208        C  0.48267082  0.74943281  0.01339542     0.77700
C209        C  0.48266024  0.75055302  0.98052471     0.77500
C210        C  0.51532094  0.74831091  0.01322239     0.77500
N211        N  0.40801505  0.89276388  0.73951603    -0.03300
C212        C  0.40821261  0.88231670  0.74602139    -0.00700
C213        C  0.39771681  0.87574929  0.74406822    -0.23600
C214        C  0.39085636  0.88235648  0.73598881    -0.23800
C215        C  0.39734589  0.89279307  0.73342032    -0.00800
H216        H  0.39534065  0.86707420  0.74802913     0.13000
H217        H  0.38194656  0.87998011  0.73264506     0.13000
N218        N  0.60290392  0.89249181  0.74386716    -0.03300
C219        C  0.60167632  0.88143752  0.74910672    -0.00700
C220        C  0.61218079  0.87474766  0.74775295    -0.23600
C221        C  0.62023744  0.88206157  0.74160673    -0.23800
C222        C  0.61428207  0.89287558  0.73930162    -0.00800
H223        H  0.61392621  0.86570876  0.75119508     0.13000
H224        H  0.62940727  0.87972441  0.73904613     0.13000
N225        N  0.41267103  0.09137546  0.74112587    -0.03300
C226        C  0.41370949  0.10256263  0.74617728    -0.00700
C227        C  0.40334481  0.10927708  0.74399315    -0.23600
C228        C  0.39564893  0.10193021  0.73746008    -0.23800
C229        C  0.40162172  0.09102121  0.73576202    -0.00800
H230        H  0.40147625  0.11844257  0.74701998     0.13000
H231        H  0.38674369  0.10435893  0.73414806     0.13000
N232        N  0.60186649  0.08738461  0.75208366    -0.03300
C233        C  0.60236589  0.09852393  0.75736497    -0.00700
C234        C  0.61346479  0.10388001  0.75502890    -0.23600
C235        C  0.62001262  0.09572568  0.74819413    -0.23800
C236        C  0.61266446  0.08570104  0.74645102    -0.00800
H237        H  0.61655442  0.11268941  0.75811106     0.13000
H238        H  0.62907874  0.09705733  0.74470837     0.13000
O239        O  0.51707796  0.97719639  0.75421289    -0.71600
O240        O  0.49260771  0.00153890  0.75360449    -0.71800
O241        O  0.49280542  0.97711621  0.75246851    -0.71700
O242        O  0.51677039  0.00165098  0.75543692    -0.71700
O243        O  0.51825322  0.00259011  0.73578645    -0.71700
O244        O  0.49420221  0.97800345  0.73281308    -0.71700
O245        O  0.49404485  0.00241671  0.73394975    -0.71600
O246        O  0.51845653  0.97820867  0.73456161    -0.71800
V247        V  0.50484610  0.98937643  0.75354916     1.35200
V248        V  0.50621152  0.99027712  0.73466270     1.35200
C249        C  0.52193979  0.97354064  0.74445549     0.77600
C250        C  0.48924508  0.00622420  0.74365862     0.77700
C251        C  0.48939468  0.97335542  0.74215860     0.77500
C252        C  0.52150200  0.00642342  0.74613336     0.77500
N253        N  0.40592835  0.24428193  0.90092149    -0.03300
C254        C  0.39548967  0.25077376  0.90112118    -0.00700
C255        C  0.38837251  0.24784219  0.89120989    -0.23600
C256        C  0.39460219  0.23917498  0.88473537    -0.23800
C257        C  0.40538500  0.23719022  0.89083802    -0.00800
H258        H  0.37956496  0.25153310  0.88897944     0.13000
H259        H  0.39172427  0.23504334  0.87628712     0.13000
N260        N  0.59986297  0.24189326  0.90730818    -0.03300
C261        C  0.61071106  0.24747569  0.90874869    -0.00700
C262        C  0.61760705  0.24623064  0.89833040    -0.23600
C263        C  0.61070130  0.23976995  0.89015984    -0.23800
C264        C  0.59988712  0.23716216  0.89592473    -0.00800
H265        H  0.62654234  0.24993156  0.89671075     0.13000
H266        H  0.61331536  0.23719564  0.88103789     0.13000
N267        N  0.40145240  0.25731802  0.09610966    -0.03300
C268        C  0.40061250  0.25076090  0.10648355    -0.00700
C269        C  0.39063613  0.25444832  0.11313497    -0.23600
C270        C  0.38525229  0.26370669  0.10664840    -0.23800
C271        C  0.39205270  0.26520537  0.09621032    -0.00800
H272        H  0.38773386  0.25096705  0.12185550     0.13000
H273        H  0.37715141  0.26863491  0.10915846     0.13000
N274        N  0.60101085  0.24234241  0.09525699    -0.03300
C275        C  0.60017698  0.23655763  0.10610782    -0.00700
C276        C  0.61095412  0.23757555  0.11242459    -0.23600
C277        C  0.61872193  0.24411309  0.10514266    -0.23800
C278        C  0.61236711  0.24700978  0.09469469    -0.00800
H279        H  0.61296110  0.23393663  0.12133439     0.13000
H280        H  0.62788208  0.24679075  0.10740013     0.13000
O281        O  0.51132514  0.23248986  0.98967521    -0.71600
O282        O  0.48721407  0.23629126  0.01399388    -0.71800
O283        O  0.48710427  0.23496803  0.98962445    -0.71700
O284        O  0.51151288  0.23384277  0.01402108    -0.71700
O285        O  0.51327370  0.25346198  0.01308225    -0.71700
O286        O  0.48918901  0.25454136  0.98845670    -0.71700
O287        O  0.48904868  0.25589092  0.01281856    -0.71600
O288        O  0.51334439  0.25208504  0.98873007    -0.71800
V289        V  0.49931602  0.23477697  0.00182473     1.35200
V290        V  0.50117845  0.25360861  0.00080484     1.35200
C291        C  0.51646898  0.24165468  0.98506044     0.77600
C292        C  0.48392078  0.24673605  0.01747259     0.77700
C293        C  0.48404490  0.24494439  0.98480311     0.77500
C294        C  0.51662563  0.24347413  0.01765776     0.77500
N295        N  0.24964387  0.39913153  0.89470164    -0.03300
C296        C  0.24360847  0.39990934  0.88398408    -0.00700
C297        C  0.24538565  0.38948528  0.87720907    -0.23600
C298        C  0.25261015  0.38195736  0.88408448    -0.23800
C299        C  0.25513736  0.38809441  0.89477581    -0.00800
H300        H  0.24159008  0.38744214  0.86837187     0.13000
H301        H  0.25576129  0.37301179  0.88150516     0.13000
N302        N  0.24403989  0.59721481  0.89887511    -0.03300
C303        C  0.23807940  0.59697308  0.88810978    -0.00700
C304        C  0.24008277  0.60765099  0.88179431    -0.23600
C305        C  0.24744168  0.61473663  0.88899166    -0.23800
C306        C  0.24979089  0.60806952  0.89937094    -0.00800
H307        H  0.23644758  0.61010297  0.87299683     0.13000
H308        H  0.25088471  0.62367352  0.88679150     0.13000
N309        N  0.25603472  0.40235054  0.09320829    -0.03300
C310        C  0.24946818  0.40187911  0.10360214    -0.00700
C311        C  0.25259423  0.39166747  0.11023354    -0.23600
C312        C  0.26144151  0.38571568  0.10371007    -0.23800
C313        C  0.26328674  0.39242238  0.09326309    -0.00800
H314        H  0.24895312  0.38892280  0.11893828     0.13000
H315        H  0.26580141  0.37726034  0.10615875     0.13000
N316        N  0.24740006  0.59297511  0.09107315    -0.03300
C317        C  0.25304336  0.60389344  0.09035195    -0.00700
C318        C  0.25038861  0.61088341  0.10044360    -0.23600
C319        C  0.24272556  0.60409232  0.10755735    -0.23800
C320        C  0.24105521  0.59312871  0.10163122    -0.00800
H321        H  0.25346337  0.62003465  0.10229842     0.13000
H322        H  0.23891012  0.60680936  0.11619865     0.13000
O323        O  0.24065943  0.50788109  0.00571449    -0.71600
O324        O  0.24027293  0.48427159  0.98048183    -0.71800
O325        O  0.24135535  0.48356397  0.00490582    -0.71700
O326        O  0.23953318  0.50868518  0.98137070    -0.71700
O327        O  0.25916142  0.50919916  0.98036787    -0.71700
O328        O  0.26098997  0.48421190  0.00413889    -0.71700
O329        O  0.25990976  0.48480102  0.97974355    -0.71600
O330        O  0.26028296  0.50858437  0.00477989    -0.71800
V331        V  0.24083948  0.49610208  0.99308678     1.35200
V332        V  0.25970479  0.49668617  0.99226277     1.35200
C333        C  0.25053719  0.51224728  0.00958167     0.77600
C334        C  0.25004124  0.48047027  0.97582298     0.77700
C335        C  0.25146815  0.47968821  0.00865372     0.77500
C336        C  0.24902553  0.51327654  0.97688059     0.77500
N337        N  0.89722360  0.39956674  0.74345417    -0.03300
C338        C  0.88689540  0.39986988  0.75014048    -0.00700
C339        C  0.87975710  0.38990955  0.74736512    -0.23600
C340        C  0.88584160  0.38337091  0.73861071    -0.23800
C341        C  0.89657161  0.38946032  0.73640761    -0.00800
H342        H  0.87093832  0.38777147  0.75107873     0.13000
H343        H  0.88283428  0.37498844  0.73444403     0.13000
N344        N  0.89668701  0.59356156  0.73889773    -0.03300
C345        C  0.89666215  0.60383310  0.73210115    -0.00700
C346        C  0.88597846  0.61016165  0.73377880    -0.23600
C347        C  0.87923234  0.60361143  0.74197481    -0.23800
C348        C  0.88597688  0.59344210  0.74492867    -0.00800
H349        H  0.88347983  0.61875323  0.72971225     0.13000
H350        H  0.87029918  0.60593432  0.74528245     0.13000
N351        N  0.08956351  0.39718268  0.75445224    -0.03300
C352        C  0.10008916  0.39740859  0.76080057    -0.00700
C353        C  0.10641072  0.38670373  0.75908682    -0.23600
C354        C  0.09951070  0.37962525  0.75144624    -0.23800
C355        C  0.08928452  0.38631915  0.74862871    -0.00800
H356        H  0.11514030  0.38434578  0.76288694     0.13000
H357        H  0.10193619  0.37076768  0.74793756     0.13000
N358        N  0.08680005  0.59776647  0.75613711    -0.03300
C359        C  0.09651582  0.59726106  0.76365979    -0.00700
C360        C  0.10265274  0.60821767  0.76349934    -0.23600
C361        C  0.09656337  0.61564685  0.75550125    -0.23800
C362        C  0.08683052  0.60902696  0.75116181    -0.00800
H363        H  0.11082820  0.61047586  0.76843583     0.13000
H364        H  0.09890461  0.62491452  0.75321469     0.13000
O365        O  0.98288248  0.48421402  0.73621539    -0.71600
O366        O  0.00741523  0.50831487  0.73681616    -0.71800
O367        O  0.00713968  0.48387694  0.73791733    -0.71700
O368        O  0.98316340  0.50862728  0.73522817    -0.71700
O369        O  0.98188720  0.50939961  0.75489633    -0.71700
O370        O  0.00580213  0.48477276  0.75757625    -0.71700
O371        O  0.00612540  0.50919792  0.75648266    -0.71600
O372        O  0.98157224  0.48501436  0.75588430    -0.71800
V373        V  0.99513198  0.49626931  0.73692541     1.35200
V374        V  0.99388017  0.49708148  0.75582394     1.35200
C375        C  0.97805623  0.48046392  0.74592838     0.77600
C376        C  0.01087885  0.51297206  0.74672750     0.77700
C377        C  0.01051135  0.48004647  0.74822953     0.77500
C378        C  0.97843821  0.51325261  0.74463899     0.77500
N379        N  0.73960458  0.40357678  0.89482037    -0.03300
C380        C  0.74477747  0.40357631  0.88363978    -0.00700
C381        C  0.74140971  0.39330108  0.87725216    -0.23600
C382        C  0.73382169  0.38679368  0.88472616    -0.23800
C383        C  0.73292864  0.39324459  0.89548664    -0.00800
H384        H  0.74412302  0.39083776  0.86812833     0.13000
H385        H  0.72970976  0.37810794  0.88266527     0.13000
N386        N  0.74768307  0.60034179  0.89436974    -0.03300
C387        C  0.75164775  0.59936825  0.88274096    -0.00700
C388        C  0.75089706  0.61053141  0.87699690    -0.23600
C389        C  0.74636932  0.61862770  0.88539557    -0.23800
C390        C  0.74437794  0.61210122  0.89592556    -0.00800
H391        H  0.75348597  0.61260138  0.86774268     0.13000
H392        H  0.74439500  0.62813442  0.88386979     0.13000
N393        N  0.76724499  0.40146610  0.08313735    -0.03300
C394        C  0.77522789  0.40167852  0.09250126    -0.00700
C395        C  0.77519889  0.39064527  0.09850575    -0.23600
C396        C  0.76677407  0.38346016  0.09274623    -0.23800
C397        C  0.76204330  0.39030354  0.08333849    -0.00800
H398        H  0.78031715  0.38827353  0.10655160     0.13000
H399        H  0.76427812  0.37428494  0.09523315     0.13000
N400        N  0.74614455  0.58901528  0.09759139    -0.03300
C401        C  0.74061549  0.59995868  0.09663478    -0.00700
C402        C  0.73973131  0.60542806  0.10791078    -0.23600
C403        C  0.74481062  0.59751106  0.11612117    -0.23800
C404        C  0.74873164  0.58755455  0.10953720    -0.00800
H405        H  0.73572315  0.61416332  0.10995672     0.13000
H406        H  0.74585568  0.59901785  0.12578498     0.13000
O407        O  0.75970159  0.51403094  0.00280160    -0.71600
O408        O  0.75797801  0.49136337  0.97670706    -0.71800
O409        O  0.75710842  0.51572193  0.97856197    -0.71700
O410        O  0.76064138  0.48975007  0.00093033    -0.71700
O411        O  0.74112028  0.48888241  0.00307746    -0.71700
O412        O  0.73756119  0.51479582  0.98042458    -0.71700
O413        O  0.73846325  0.49042889  0.97887627    -0.71600
O414        O  0.74015712  0.51320250  0.00473257    -0.71800
V415        V  0.75847267  0.50271031  0.98977472     1.35200
V416        V  0.73970357  0.50185981  0.99173261     1.35200
C417        C  0.75021236  0.51740422  0.00829749     0.77600
C418        C  0.74791579  0.48692240  0.97342541     0.77700
C419        C  0.74676628  0.51967482  0.97560962     0.77500
C420        C  0.75150933  0.48490084  0.00587511     0.77500
N421        N  0.90594822  0.39236558  0.24134793    -0.03300
C422        C  0.89510892  0.39305868  0.23560008    -0.00700
C423        C  0.88944643  0.38185452  0.23564242    -0.23600
C424        C  0.89710583  0.37397793  0.24157127    -0.23800
C425        C  0.90711482  0.38068427  0.24507672    -0.00800
H426        H  0.88071255  0.37964311  0.23175937     0.13000
H427        H  0.89537025  0.36449111  0.24346966     0.13000
N428        N  0.89805210  0.58532650  0.26647079    -0.03300
C429        C  0.89927442  0.59584671  0.27274991    -0.00700
C430        C  0.88821486  0.60161305  0.27386179    -0.23600
C431        C  0.87984374  0.59428825  0.26817376    -0.23800
C432        C  0.88613382  0.58439729  0.26366423    -0.00800
H433        H  0.88640906  0.61011980  0.27845112     0.13000
H434        H  0.87026572  0.59612220  0.26718308     0.13000
N435        N  0.09307929  0.39354148  0.23809250    -0.03300
C436        C  0.10366574  0.39358111  0.23184191    -0.00700
C437        C  0.10954549  0.38257933  0.23314713    -0.23600
C438        C  0.10242956  0.37558592  0.24062256    -0.23800
C439        C  0.09237828  0.38250767  0.24353657    -0.00800
H440        H  0.11825505  0.38005823  0.22941191     0.13000
H441        H  0.10437786  0.36642386  0.24360011     0.13000
N442        N  0.10129056  0.58543824  0.25689317    -0.03300
C443        C  0.10213996  0.59456640  0.26511202    -0.00700
C444        C  0.11322763  0.60031429  0.26412214    -0.23600
C445        C  0.11935297  0.59459296  0.25484509    -0.23800
C446        C  0.11183721  0.58546457  0.25060083    -0.00800
H447        H  0.11637499  0.60804260  0.26932393     0.13000
H448        H  0.12835203  0.59678406  0.25162951     0.13000
O449        O  0.98621846  0.50650554  0.23983449    -0.71600
O450        O  0.01094991  0.48272536  0.23624911    -0.71800
O451        O  0.98660050  0.48218221  0.23759492    -0.71700
O452        O  0.01055727  0.50705199  0.23852283    -0.71700
O453        O  0.01170761  0.50514588  0.25812204    -0.71700
O454        O  0.98770519  0.48045230  0.25721279    -0.71700
O455        O  0.01197572  0.48089325  0.25586163    -0.71600
O456        O  0.98739903  0.50478303  0.25944866    -0.71800
V457        V  0.99859966  0.49458419  0.23842692     1.35200
V458        V  0.99966616  0.49286131  0.25727320     1.35200
C459        C  0.98258247  0.50971358  0.25025567     0.77600
C460        C  0.01569542  0.47774441  0.24545415     0.77700
C461        C  0.98307267  0.47705321  0.24726078     0.77500
C462        C  0.01529266  0.51027889  0.24849430     0.77500
N463        N  0.90148274  0.23947495  0.39641330    -0.03300
C464        C  0.90302701  0.24388227  0.38501581    -0.00700
C465        C  0.89265629  0.24207754  0.37819877    -0.23600
C466        C  0.88441751  0.23644130  0.38569638    -0.23800
C467        C  0.89009329  0.23485953  0.39679164    -0.00800
H468        H  0.89117419  0.24473953  0.36884983     0.13000
H469        H  0.87536520  0.23357993  0.38323615     0.13000
N470        N  0.90117302  0.24536644  0.59383515    -0.03300
C471        C  0.90147339  0.25254454  0.60384970    -0.00700
C472        C  0.89101425  0.25100754  0.61059110    -0.23600
C473        C  0.88410245  0.24251829  0.60455531    -0.23800
C474        C  0.89051284  0.23927106  0.59426204    -0.00800
H475        H  0.88871777  0.25546392  0.61905062     0.13000
H476        H  0.87523031  0.23930646  0.60722277     0.13000
N477        N  0.09406320  0.23241766  0.39845832    -0.03300
C478        C  0.09210426  0.23550296  0.38667332    -0.00700
C479        C  0.10180922  0.23197094  0.37958417    -0.23600
C480        C  0.11005875  0.22662684  0.38727035    -0.23800
C481        C  0.10509559  0.22694199  0.39882221    -0.00800
H482        H  0.10288644  0.23334689  0.36990742     0.13000
H483        H  0.11867310  0.22274031  0.38465304     0.13000
N484        N  0.09622015  0.25202993  0.59003076    -0.03300
C485        C  0.09591330  0.25829584  0.60063633    -0.00700
C486        C  0.10719981  0.25816643  0.60609637    -0.23600
C487        C  0.11472188  0.25168265  0.59853708    -0.23800
C488        C  0.10773867  0.24796019  0.58878832    -0.00800
H489        H  0.10973941  0.26247234  0.61456687     0.13000
H490        H  0.12418721  0.24968013  0.60011687     0.13000
O491        O  0.98486427  0.24909685  0.48301614    -0.71600
O492        O  0.00904942  0.25020000  0.50749581    -0.71800
O493        O  0.00925586  0.24961120  0.48311948    -0.71700
O494        O  0.98481646  0.24968612  0.50737560    -0.71700
O495        O  0.98523960  0.22997812  0.50792812    -0.71700
O496        O  0.00961233  0.22989974  0.48352849    -0.71700
O497        O  0.00957300  0.23049039  0.50792622    -0.71600
O498        O  0.98519282  0.22938621  0.48348876    -0.71800
V499        V  0.99700309  0.24925532  0.49523674     1.35200
V500        V  0.99739163  0.23031397  0.49568880     1.35200
C501        C  0.98078762  0.23907430  0.47915368     0.77600
C502        C  0.01341077  0.24055630  0.51194074     0.77700
C503        C  0.01372663  0.23975129  0.47928097     0.77500
C504        C  0.98092179  0.23986803  0.51187604     0.77500
O505        O  0.98948271  0.33109571  0.31958363    -0.71600
O506        O  0.01373693  0.31270259  0.33584126    -0.71800
O507        O  0.01369463  0.33031595  0.31877625    -0.71700
O508        O  0.98951830  0.31353553  0.33663908    -0.71700
O509        O  0.98867935  0.29977760  0.32251607    -0.71700
O510        O  0.01265636  0.31667852  0.30454833    -0.71700
O511        O  0.01286147  0.29904653  0.32162648    -0.71600
O512        O  0.98851999  0.31726782  0.30553958    -0.71800
V513        V  0.00160727  0.32164808  0.32743957     1.35200
V514        V  0.00072177  0.30846070  0.31383962     1.35200
C515        C  0.98492180  0.32733678  0.30972147     0.77600
C516        C  0.01724993  0.30259629  0.33163647     0.77700
C517        C  0.01705697  0.32654102  0.30845990     0.77500
C518        C  0.98504234  0.30372951  0.33266888     0.77500
O519        O  0.83769972  0.16946284  0.50991321    -0.71600
O520        O  0.81951552  0.15436036  0.48485146    -0.71800
O521        O  0.83837996  0.16973486  0.48550170    -0.71700
O522        O  0.81871222  0.15412913  0.50922525    -0.71700
O523        O  0.80644391  0.16953793  0.50894101    -0.71700
O524        O  0.82596364  0.18502569  0.48539018    -0.71700
O525        O  0.80712934  0.16967729  0.48466179    -0.71600
O526        O  0.82532692  0.18478894  0.50972143    -0.71800
V527        V  0.82834807  0.16221380  0.49737998     1.35200
V528        V  0.81646962  0.17695419  0.49718352     1.35200
C529        C  0.83464452  0.17972153  0.51407574     0.77600
C530        C  0.81019639  0.15941598  0.48050484     0.77700
C531        C  0.83546410  0.18005947  0.48137385     0.77500
C532        C  0.80915587  0.15918944  0.51306481     0.77500
O533        O  0.17133823  0.18228675  0.51213534    -0.71600
O534        O  0.19035318  0.16363602  0.49051156    -0.71800
O535        O  0.17240688  0.17991442  0.48799258    -0.71700
O536        O  0.18920432  0.16600037  0.51468925    -0.71700
O537        O  0.17609283  0.15131103  0.51535312    -0.71700
O538        O  0.15907847  0.16544234  0.48888173    -0.71700
O539        O  0.17707531  0.14909712  0.49114030    -0.71600
O540        O  0.15812735  0.16770854  0.51315340    -0.71800
V541        V  0.18056887  0.17266224  0.50134900     1.35200
V542        V  0.16784133  0.15866851  0.50211994     1.35200
C543        C  0.16146370  0.17825419  0.51628076     0.77600
C544        C  0.18700555  0.15319070  0.48713727     0.77700
C545        C  0.16278479  0.17514122  0.48396335     0.77500
C546        C  0.18559558  0.15621324  0.51949300     0.77500
O547        O  0.82650591  0.51103157  0.16123841    -0.71600
O548        O  0.84520462  0.48640255  0.17639151    -0.71800
O549        O  0.83004892  0.48736171  0.15735846    -0.71700
O550        O  0.84174057  0.51017165  0.18024621    -0.71700
O551        O  0.82686235  0.50583754  0.19238946    -0.71700
O552        O  0.81479070  0.48332623  0.16912437    -0.71700
O553        O  0.83000990  0.48208170  0.18813905    -0.71600
O554        O  0.81154435  0.50703967  0.17339846    -0.71800
V555        V  0.83558493  0.49866930  0.16905758     1.35200
V556        V  0.82109172  0.49465874  0.18054080     1.35200
C557        C  0.81576842  0.51312159  0.16463514     0.77600
C558        C  0.84077176  0.48000814  0.18483607     0.77700
C559        C  0.82035906  0.48156289  0.15922883     0.77500
C560        C  0.83642406  0.51180959  0.19027659     0.77500
O561        O  0.17229518  0.48313472  0.15071040    -0.71600
O562        O  0.15441833  0.50654192  0.16868129    -0.71800
O563        O  0.17172622  0.50748663  0.15158687    -0.71700
O564        O  0.15494773  0.48223044  0.16781001    -0.71700
O565        O  0.16852236  0.48233623  0.18209445    -0.71700
O566        O  0.18576664  0.50699076  0.16540305    -0.71700
O567        O  0.16846985  0.50663996  0.18249170    -0.71600
O568        O  0.18585570  0.48267482  0.16499641    -0.71800
V569        V  0.16361544  0.49483991  0.15996206     1.35200
V570        V  0.17688298  0.49466071  0.17347141     1.35200
C571        C  0.18213603  0.47890071  0.15480465     0.77600
C572        C  0.15842897  0.51060269  0.17865679     0.77700
C573        C  0.18166288  0.51147985  0.15566589     0.77500
C574        C  0.15877658  0.47808895  0.17780904     0.77500
O575        O  0.65803964  0.32596039  0.01417653    -0.71600
O576        O  0.67270937  0.34349506  0.98835876    -0.71800
O577        O  0.65595373  0.32576336  0.98986804    -0.71700
O578        O  0.67488513  0.34366112  0.01261065    -0.71700
O579        O  0.68875574  0.32971029  0.01174289    -0.71700
O580        O  0.67040712  0.31247161  0.98843804    -0.71700
O581        O  0.68711110  0.33009906  0.98748614    -0.71600
O582        O  0.67193640  0.31209425  0.01265704    -0.71800
V583        V  0.66566057  0.33446479  0.00124119     1.35200
V584        V  0.67927316  0.32137194  0.00011977     1.35200
C585        C  0.66234090  0.31589527  0.01765151     0.77600
C586        C  0.68247298  0.33985259  0.98358490     0.77700
C587        C  0.66000269  0.31602910  0.98527714     0.77500
C588        C  0.68512779  0.33973931  0.01596601     0.77500
O589        O  0.80557013  0.51019880  0.82024853    -0.71600
O590        O  0.82452231  0.48557945  0.80534251    -0.71800
O591        O  0.80626774  0.48589794  0.82137786    -0.71700
O592        O  0.82390779  0.50988384  0.80417444    -0.71700
O593        O  0.83683330  0.51100282  0.81900952    -0.71700
O594        O  0.81920791  0.48692594  0.83620760    -0.71700
O595        O  0.83755464  0.48667436  0.82008166    -0.71600
O596        O  0.81849514  0.51126205  0.83508267    -0.71800
V597        V  0.81532506  0.49792204  0.81307717     1.35200
V598        V  0.82777227  0.49894654  0.82731401     1.35200
C599        C  0.80873332  0.51487818  0.83025866     0.77600
C600        C  0.83428498  0.48193799  0.81012199     0.77700
C601        C  0.80969509  0.48233660  0.83174033     0.77500
C602        C  0.83343740  0.51446901  0.80860141     0.77500
O603        O  0.98468943  0.34508874  0.66542393    -0.71600
O604        O  0.01005512  0.32854791  0.64910462    -0.71800
O605        O  0.98581588  0.32784487  0.64814757    -0.71700
O606        O  0.00907024  0.34571073  0.66647777    -0.71700
O607        O  0.00912162  0.33140664  0.68005223    -0.71700
O608        O  0.98535641  0.31415370  0.66233457    -0.71700
O609        O  0.00956196  0.31430835  0.66273993    -0.71600
O610        O  0.98478965  0.33133547  0.67955498    -0.71800
V611        V  0.99740538  0.33655147  0.65756630     1.35200
V612        V  0.99721570  0.32309791  0.67091126     1.35200
C613        C  0.98035232  0.34101445  0.67524149     0.77600
C614        C  0.01399276  0.31850091  0.65300901     0.77700
C615        C  0.98164486  0.31790927  0.65215258     0.77500
C616        C  0.01319069  0.34146502  0.67633981     0.77500
O617        O  0.17857445  0.48630870  0.83212947    -0.71600
O618        O  0.15909090  0.50921947  0.81550980    -0.71800
O619        O  0.17716657  0.51056126  0.83166908    -0.71700
O620        O  0.16037864  0.48496388  0.81595403    -0.71700
O621        O  0.14715583  0.48473713  0.83055166    -0.71700
O622        O  0.16435019  0.50988882  0.84661428    -0.71700
O623        O  0.14615495  0.50903300  0.83036251    -0.71600
O624        O  0.16541707  0.48549253  0.84676261    -0.71800
V625        V  0.16854782  0.49773918  0.82411490     1.35200
V626        V  0.15602490  0.49729264  0.83830321     1.35200
C627        C  0.17536566  0.48197237  0.84226053     0.77600
C628        C  0.14931309  0.51305906  0.82006696     0.77700
C629        C  0.17366139  0.51456502  0.84184333     0.77500
C630        C  0.15076170  0.48064619  0.82044741     0.77500
O631        O  0.33317291  0.34971464  0.00356859    -0.71600
O632        O  0.35043241  0.33084574  0.98044009    -0.71800
O633        O  0.33230347  0.34715346  0.97925302    -0.71700
O634        O  0.35120684  0.33343433  0.00469016    -0.71700
O635        O  0.33786775  0.31908831  0.00674993    -0.71700
O636        O  0.31929006  0.33248644  0.98111341    -0.71700
O637        O  0.33736101  0.31626316  0.98256038    -0.71600
O638        O  0.31989158  0.33527106  0.00529967    -0.71800
V639        V  0.34152164  0.34001765  0.99200292     1.35200
V640        V  0.32886734  0.32606402  0.99387650     1.35200
C641        C  0.32362845  0.34566066  0.00845354     0.77600
C642        C  0.34690700  0.32027340  0.97765190     0.77700
C643        C  0.32254205  0.34215702  0.97586111     0.77500
C644        C  0.34766609  0.32396547  0.01014381     0.77500
O645        O  0.49110789  0.16707714  0.84182931    -0.71600
O646        O  0.51713025  0.15042006  0.82674807    -0.71800
O647        O  0.51527186  0.16769777  0.84390292    -0.71700
O648        O  0.49296356  0.14984908  0.82463274    -0.71700
O649        O  0.49355142  0.16400479  0.81091132    -0.71700
O650        O  0.51635358  0.18145283  0.82981100    -0.71700
O651        O  0.51775961  0.16415619  0.81261363    -0.71600
O652        O  0.49212126  0.18122050  0.82812479    -0.71800
V653        V  0.50413247  0.15903574  0.83400975     1.35200
V654        V  0.50493586  0.17244144  0.82063686     1.35200
C655        C  0.48722545  0.17703033  0.83763403     0.77600
C656        C  0.52179877  0.15434329  0.81702529     0.77700
C657        C  0.51963364  0.17762489  0.84012576     0.77500
C658        C  0.48945733  0.15389487  0.81446858     0.77500
O659        O  0.48256158  0.18769571  0.16466879    -0.71600
O660        O  0.50748154  0.17163072  0.18192143    -0.71800
O661        O  0.50681479  0.18807013  0.16396509    -0.71700
O662        O  0.48331454  0.17127604  0.18262280    -0.71700
O663        O  0.48305247  0.15672305  0.16929968    -0.71700
O664        O  0.50673151  0.17350075  0.15065744    -0.71700
O665        O  0.50731104  0.15702309  0.16864876    -0.71600
O666        O  0.48241930  0.17322134  0.15125143    -0.71800
V667        V  0.49503942  0.17938891  0.17301607     1.35200
V668        V  0.49487514  0.16540126  0.16020704     1.35200
C669        C  0.47824969  0.18323967  0.15500694     0.77600
C670        C  0.51154360  0.16151752  0.17833510     0.77700
C671        C  0.51084857  0.18364228  0.15416573     0.77500
C672        C  0.47924286  0.16108956  0.17922923     0.77500
O673        O  0.31773424  0.98298354  0.66541543    -0.71600
O674        O  0.33728217  0.00642051  0.68122787    -0.71800
O675        O  0.31880944  0.00725746  0.66557428    -0.71700
O676        O  0.33624515  0.98211211  0.68117516    -0.71700
O677        O  0.34857310  0.98111171  0.66583813    -0.71700
O678        O  0.33180730  0.00722452  0.65077245    -0.71700
O679        O  0.35032269  0.00544886  0.66649096    -0.71600
O680        O  0.33008033  0.98293995  0.65006032    -0.71800
V681        V  0.32777263  0.99466654  0.67305329     1.35200
V682        V  0.33996262  0.99418135  0.65857647     1.35200
C683        C  0.32045124  0.97911548  0.65494882     0.77600
C684        C  0.34714434  0.00992593  0.67658017     0.77700
C685        C  0.32238670  0.01164334  0.65559638     0.77500
C686        C  0.34533405  0.97725951  0.67616858     0.77500
O687        O  0.51534435  0.82258909  0.84093364    -0.71600
O688        O  0.49138934  0.83916117  0.82259779    -0.71800
O689        O  0.49107802  0.82235286  0.84034168    -0.71700
O690        O  0.51560042  0.83940801  0.82312600    -0.71700
O691        O  0.51608967  0.82493052  0.80971615    -0.71700
O692        O  0.49148407  0.80811929  0.82667638    -0.71700
O693        O  0.49193298  0.82484509  0.80902075    -0.71600
O694        O  0.51569216  0.80825708  0.82736238    -0.71800
V695        V  0.50336762  0.83060236  0.83150581     1.35200
V696        V  0.50379042  0.81682081  0.81847484     1.35200
C697        C  0.51954742  0.81254598  0.83728587     0.77600
C698        C  0.48769031  0.83488707  0.81259584     0.77700
C699        C  0.48709193  0.81231358  0.83641167     0.77500
C700        C  0.51992962  0.83509690  0.81339383     0.77500
O701        O  0.32620848  0.65171901  0.98281097    -0.71600
O702        O  0.34350497  0.66889274  0.00719071    -0.71800
O703        O  0.32560433  0.65225694  0.00707049    -0.71700
O704        O  0.34406723  0.66829968  0.98286591    -0.71700
O705        O  0.33085308  0.68289610  0.98241059    -0.71700
O706        O  0.31210579  0.66657283  0.00624659    -0.71700
O707        O  0.32996758  0.68318815  0.00672182    -0.71600
O708        O  0.31302632  0.66633129  0.98197823    -0.71800
V709        V  0.33459259  0.66057729  0.99498438     1.35200
V710        V  0.32175426  0.67447188  0.99436155     1.35200
C711        C  0.31662625  0.65607776  0.97828246     0.77600
C712        C  0.33972615  0.67902753  0.01105377     0.77700
C713        C  0.31557288  0.65652643  0.01059290     0.77500
C714        C  0.34066064  0.67838196  0.97856244     0.77500
O715        O  0.50776075  0.81554236  0.15841071    -0.71600
O716        O  0.48528575  0.83614759  0.17410993    -0.71800
O717        O  0.48374748  0.81847315  0.15733885    -0.71700
O718        O  0.50920071  0.83320012  0.17514305    -0.71700
O719        O  0.51128275  0.84681261  0.16103040    -0.71700
O720        O  0.48615177  0.83161218  0.14283495    -0.71700
O721        O  0.48720037  0.84942157  0.15964672    -0.71600
O722        O  0.51030190  0.82899046  0.14421253    -0.71800
V723        V  0.49653665  0.82609965  0.16594711     1.35200
V724        V  0.49869212  0.83895048  0.15218610     1.35200
C725        C  0.51290241  0.81872339  0.14866664     0.77600
C726        C  0.48252698  0.84636318  0.16968188     0.77700
C727        C  0.48066239  0.82242158  0.14700479     0.77500
C728        C  0.51442329  0.84265805  0.17128232     0.77500
O729        O  0.34361482  0.98320070  0.32219179    -0.71600
O730        O  0.32985125  0.00705949  0.34300108    -0.71800
O731        O  0.32815151  0.98294259  0.34109699    -0.71700
O732        O  0.34540711  0.00735393  0.32413526    -0.71700
O733        O  0.33010307  0.00987672  0.31199864    -0.71700
O734        O  0.31325264  0.98459764  0.32831933    -0.71700
O735        O  0.31451280  0.00864261  0.33074755    -0.71600
O736        O  0.32877042  0.98572348  0.30949356    -0.71800
V737        V  0.33647429  0.99517679  0.33235554     1.35200
V738        V  0.32196295  0.99716776  0.32036892     1.35200
C739        C  0.33863368  0.98056403  0.31217413     0.77600
C740        C  0.31963651  0.01165985  0.34056319     0.77700
C741        C  0.31768963  0.97972743  0.33773133     0.77500
C742        C  0.34072910  0.01279103  0.31517763     0.77500
O743        O  0.16744831  0.84623055  0.48902026    -0.71600
O744        O  0.15082439  0.82616412  0.51145951    -0.71800
O745        O  0.16667016  0.84455156  0.51331656    -0.71700
O746        O  0.15155578  0.82777741  0.48722162    -0.71700
O747        O  0.16635180  0.81479072  0.48702175    -0.71700
O748        O  0.18167858  0.83182355  0.51270407    -0.71700
O749        O  0.16586710  0.81345497  0.51126861    -0.71600
O750        O  0.18224420  0.83324676  0.48847890    -0.71800
V751        V  0.15941516  0.83594266  0.50023300     1.35200
V752        V  0.17374084  0.82358211  0.49985436     1.35200
C753        C  0.17774636  0.84321563  0.48501723     0.77600
C754        C  0.15553386  0.81639962  0.51521045     0.77700
C755        C  0.17677511  0.84105095  0.51744717     0.77500
C756        C  0.15627380  0.81827474  0.48282588     0.77500
O757        O  0.99210496  0.65599157  0.31847142    -0.71600
O758        O  0.01550189  0.67531878  0.33468823    -0.71800
O759        O  0.01630565  0.65641017  0.31928074    -0.71700
O760        O  0.99133507  0.67490659  0.33385161    -0.71700
O761        O  0.99144124  0.66278375  0.34941403    -0.71700
O762        O  0.01565272  0.64362342  0.33428652    -0.71700
O763        O  0.01567770  0.66252714  0.34970442    -0.71600
O764        O  0.99136676  0.64386700  0.33401373    -0.71800
V765        V  0.00380866  0.66540683  0.32686516     1.35200
V766        V  0.00353669  0.65343244  0.34155813     1.35200
C767        C  0.98768258  0.64667201  0.32350292     0.77600
C768        C  0.01958668  0.67222471  0.34496548     0.77700
C769        C  0.02015711  0.64679472  0.32421675     0.77500
C770        C  0.98728057  0.67213455  0.34421834     0.77500
O771        O  0.83298558  0.81679945  0.50259273    -0.71600
O772        O  0.81693842  0.83553297  0.47867266    -0.71800
O773        O  0.83088048  0.81550085  0.47851109    -0.71700
O774        O  0.81916875  0.83687636  0.50289725    -0.71700
O775        O  0.83533949  0.84793807  0.50097919    -0.71700
O776        O  0.84673703  0.82696090  0.47627262    -0.71700
O777        O  0.83284539  0.84697627  0.47678286    -0.71600
O778        O  0.84914413  0.82782722  0.50041151    -0.71800
V779        V  0.82528498  0.82642135  0.49061700     1.35200
V780        V  0.84069565  0.83722055  0.48864555     1.35200
C781        C  0.84387146  0.81893049  0.50541509     0.77600
C782        C  0.82208176  0.84450550  0.47371288     0.77700
C783        C  0.84096575  0.81746604  0.47344136     0.77500
C784        C  0.82530759  0.84602766  0.50614508     0.77500
O785        O  0.64523239  0.98825636  0.32722414    -0.71600
O786        O  0.66276350  0.01377701  0.34240433    -0.71800
O787        O  0.64469383  0.01264405  0.32621071    -0.71700
O788        O  0.66340416  0.98955776  0.34349581    -0.71700
O789        O  0.67641997  0.98909856  0.32871571    -0.71700
O790        O  0.65784980  0.01239352  0.31154653    -0.71700
O791        O  0.67596660  0.01333863  0.32779501    -0.71600
O792        O  0.65823922  0.98806258  0.31243591    -0.71800
V793        V  0.65425697  0.00102811  0.33452746     1.35200
V794        V  0.66684746  0.00071196  0.32039268     1.35200
C795        C  0.64869756  0.98384565  0.31719373     0.77600
C796        C  0.67243910  0.01780969  0.33777599     0.77700
C797        C  0.64816993  0.01658713  0.31600895     0.77500
C798        C  0.67326382  0.98562489  0.33919262     0.77500
O799        O  0.98505796  0.65805563  0.67004195    -0.71600
O800        O  0.00973453  0.67757631  0.65642902    -0.71800
O801        O  0.00916561  0.65906462  0.67233001    -0.71700
O802        O  0.98561595  0.67661835  0.65424265    -0.71700
O803        O  0.98382719  0.68939642  0.66917535    -0.71700
O804        O  0.00719693  0.67187614  0.68720975    -0.71700
O805        O  0.00798220  0.69036777  0.67135922    -0.71600
O806        O  0.98308711  0.67086891  0.68492476    -0.71800
V807        V  0.99736550  0.66807824  0.66354836     1.35200
V808        V  0.99556663  0.68038084  0.67787428     1.35200
C809        C  0.97986680  0.66110010  0.67980242     0.77600
C810        C  0.01303681  0.68732128  0.66150851     0.77700
C811        C  0.01209612  0.66242748  0.68293093     0.77500
C812        C  0.98071952  0.68603440  0.65864621     0.77500
O813        O  0.67584769  0.98077354  0.68423798    -0.71600
O814        O  0.69092888  0.00686039  0.66754529    -0.71800
O815        O  0.67357751  0.00491612  0.68457807    -0.71700
O816        O  0.69324165  0.98264987  0.66725076    -0.71700
O817        O  0.67969177  0.98159969  0.65298560    -0.71700
O818        O  0.65981593  0.00373196  0.67053081    -0.71700
O819        O  0.67718758  0.00579234  0.65346433    -0.71600
O820        O  0.66230294  0.97955339  0.66997624    -0.71800
V821        V  0.68313888  0.99377753  0.67561719     1.35200
V822        V  0.67001789  0.99269341  0.66200668     1.35200
C823        C  0.66640434  0.97581758  0.68002385     0.77600
C824        C  0.68665606  0.01074172  0.65761397     0.77700
C825        C  0.66326016  0.00797700  0.68065181     0.77500
C826        C  0.68990283  0.97840247  0.65711330     0.77500
O827        O  0.67544970  0.65116945  0.01030197    -0.71600
O828        O  0.65636485  0.66884063  0.98794599    -0.71800
O829        O  0.67490531  0.65310044  0.98610047    -0.71700
O830        O  0.65697948  0.66703682  0.01214265    -0.71700
O831        O  0.66989911  0.68188236  0.01303355    -0.71700
O832        O  0.68757214  0.66816614  0.98693912    -0.71700
O833        O  0.66904718  0.68389445  0.98885792    -0.71600
O834        O  0.68832522  0.66606287  0.01116268    -0.71800
V835        V  0.66617620  0.66032371  0.99914280     1.35200
V836        V  0.67846689  0.67470571  0.99997867     1.35200
C837        C  0.68520058  0.65550851  0.01444605     0.77600
C838        C  0.65932086  0.67943951  0.98472347     0.77700
C839        C  0.68437078  0.65823852  0.98214293     0.77500
C840        C  0.66032643  0.67694810  0.01692436     0.77500
C841        C  0.08537734  0.26487677  0.60563297    -0.03200
C842        C  0.08303195  0.26436964  0.61816109    -0.09000
C843        C  0.07359596  0.27112996  0.62318298    -0.16600
C844        C  0.06644293  0.27852263  0.61575135     0.25500
C845        C  0.06866343  0.27904334  0.60323850    -0.18300
C846        C  0.07812332  0.27227350  0.59819274    -0.07200
C847        C  0.05705684  0.28577114  0.62111526    -0.13600
C848        C  0.04947032  0.29170139  0.62625469    -0.13400
C849        C  0.04063525  0.29850695  0.63297601     0.25400
C850        C  0.03678672  0.30986917  0.62880619    -0.18800
C851        C  0.02819296  0.31645748  0.63539743    -0.07200
C852        C  0.02336950  0.31173838  0.64624715    -0.03300
C853        C  0.02736281  0.30034533  0.65039970    -0.08600
C854        C  0.03594705  0.29377755  0.64379237    -0.16300
H855        H  0.08854516  0.25877109  0.62406937     0.11900
H856        H  0.07196110  0.27069426  0.63288236     0.11200
H857        H  0.06322105  0.28481797  0.59743026     0.11100
H858        H  0.07996800  0.27309471  0.58857011     0.11600
H859        H  0.04039946  0.31361620  0.62045670     0.11700
H860        H  0.02528037  0.32520145  0.63196852     0.11700
H861        H  0.02379876  0.29647035  0.65870425     0.11800
H862        H  0.03890672  0.28499636  0.64710370     0.10600
C863        C  0.11224488  0.23997795  0.57899647    -0.03200
C864        C  0.12376474  0.24204225  0.57401964    -0.09000
C865        C  0.12852613  0.23405203  0.56541585    -0.16600
C866        C  0.12184824  0.22388759  0.56175383     0.25500
C867        C  0.11029914  0.22183307  0.56655262    -0.18300
C868        C  0.10552165  0.22982598  0.57517497    -0.07200
C869        C  0.12716295  0.21532064  0.55351114    -0.13600
C870        C  0.13242940  0.20839951  0.54691073    -0.13400
C871        C  0.13961576  0.20071256  0.53925161     0.25400
C872        C  0.13620257  0.18865504  0.53710217    -0.18800
C873        C  0.14334940  0.18124326  0.52967735    -0.07200
C874        C  0.15399386  0.18584461  0.52438813    -0.03300
C875        C  0.15736819  0.19794897  0.52669228    -0.08600
C876        C  0.15021024  0.20532690  0.53406662    -0.16300
H877        H  0.12911630  0.24978224  0.57687980     0.11900
H878        H  0.13749807  0.23568264  0.56177742     0.11200
H879        H  0.10511568  0.21392289  0.56384083     0.11100
H880        H  0.09677157  0.22784359  0.57913077     0.11600
H881        H  0.12803107  0.18500106  0.54114052     0.11700
H882        H  0.14054724  0.17195325  0.52806159     0.11700
H883        H  0.16549744  0.20176006  0.52272328     0.11800
H884        H  0.15293784  0.21464122  0.53572055     0.10600
C885        C  0.02270267  0.24110867  0.52162193    -0.03200
C886        C  0.02574014  0.25230852  0.52698197    -0.09000
C887        C  0.03451157  0.25291303  0.53611881    -0.16600
C888        C  0.04040132  0.24235732  0.54001116     0.25500
C889        C  0.03742710  0.23115248  0.53475968    -0.18300
C890        C  0.02860527  0.23051684  0.52563503    -0.07200
C891        C  0.04966606  0.24314561  0.54919870    -0.13600
C892        C  0.05760534  0.24432106  0.55664410    -0.13400
C893        C  0.06733973  0.24622227  0.56515567     0.25400
C894        C  0.07819712  0.25146454  0.56119194    -0.18800
C895        C  0.08766729  0.25341427  0.56939314    -0.07200
C896        C  0.08637212  0.25016356  0.58165501    -0.03300
C897        C  0.07545887  0.24494604  0.58561149    -0.08600
C898        C  0.06598245  0.24297417  0.57739056    -0.16300
H899        H  0.02132550  0.26061537  0.52412789     0.11900
H900        H  0.03674723  0.26163414  0.54010472     0.11200
H901        H  0.04195697  0.22292540  0.53767662     0.11100
H902        H  0.02646660  0.22176773  0.52167170     0.11600
H903        H  0.07933749  0.25405113  0.55176227     0.11700
H904        H  0.09600990  0.25749292  0.56622451     0.11700
H905        H  0.07435903  0.24232742  0.59502835     0.11800
H906        H  0.05762140  0.23892076  0.58056375     0.10600
C907        C  0.02589961  0.29489380  0.33845761    -0.03200
C908        C  0.02861188  0.28307722  0.33439622    -0.09000
C909        C  0.03611730  0.27547595  0.34125495    -0.16600
C910        C  0.04104054  0.27957237  0.35224508     0.25500
C911        C  0.03854241  0.29137858  0.35626857    -0.18300
C912        C  0.03100981  0.29899102  0.34943691    -0.07200
C913        C  0.04868236  0.27166726  0.35934261    -0.13600
C914        C  0.05529535  0.26499444  0.36497977    -0.13400
C915        C  0.06368950  0.25704145  0.37109915     0.25400
C916        C  0.06874993  0.26038285  0.38229618    -0.18800
C917        C  0.07767415  0.25311876  0.38768367    -0.07200
C918        C  0.08163827  0.24245023  0.38189750    -0.03300
C919        C  0.07630666  0.23901646  0.37082091    -0.08600
C920        C  0.06735402  0.24623672  0.36548652    -0.16300
H921        H  0.02477468  0.27962761  0.32601737     0.11900
H922        H  0.03800933  0.26637128  0.33802618     0.11200
H923        H  0.04233902  0.29466921  0.36473413     0.11100
H924        H  0.02907654  0.30802528  0.35281807     0.11600
H925        H  0.06604393  0.26876363  0.38669179     0.11700
H926        H  0.08182122  0.25609757  0.39608933     0.11700
H927        H  0.07924251  0.23084727  0.36618786     0.11800
H928        H  0.06352420  0.24355674  0.35682187     0.10600
C929        C  0.11109317  0.22148332  0.40961137    -0.03200
C930        C  0.10459305  0.21454616  0.41813398    -0.09000
C931        C  0.11064396  0.20872026  0.42769403    -0.16600
C932        C  0.12325765  0.20964768  0.42877016     0.25500
C933        C  0.12976676  0.21655412  0.42034200    -0.18300
C934        C  0.12374198  0.22241470  0.41084165    -0.07200
C935        C  0.12961772  0.20336389  0.43833815    -0.13600
C936        C  0.13531246  0.19821778  0.44616500    -0.13400
C937        C  0.14235482  0.19226919  0.45546188     0.25400
C938        C  0.15267416  0.19794476  0.46020967    -0.18800
C939        C  0.15942785  0.19229496  0.46936170    -0.07200
C940        C  0.15592691  0.18088263  0.47391977    -0.03300
C941        C  0.14560996  0.17518914  0.46901576    -0.08600
C942        C  0.13888523  0.18084604  0.45983772    -0.16300
H943        H  0.09492153  0.21328613  0.41721700     0.11900
H944        H  0.10551263  0.20332280  0.43411412     0.11200
H945        H  0.13952529  0.21732438  0.42104695     0.11100
H946        H  0.12899826  0.22763526  0.40438259     0.11600
H947        H  0.15546174  0.20677760  0.45688920     0.11700
H948        H  0.16730448  0.19692672  0.47296418     0.11700
H949        H  0.14268996  0.16640035  0.47232238     0.11800
H950        H  0.13093584  0.17634692  0.45621552     0.10600
C951        C  0.02366311  0.23974964  0.47023758    -0.03200
C952        C  0.02841790  0.25075390  0.46580064    -0.09000
C953        C  0.03802524  0.25073179  0.45750459    -0.16600
C954        C  0.04300777  0.23972637  0.45354699     0.25500
C955        C  0.03831138  0.22874316  0.45788926    -0.18300
C956        C  0.02871402  0.22874122  0.46617774    -0.07200
C957        C  0.05272978  0.23962032  0.44481337    -0.13600
C958        C  0.06050207  0.23896826  0.43713384    -0.13400
C959        C  0.06911473  0.23745475  0.42741701     0.25400
C960        C  0.06557572  0.23137625  0.41681951    -0.18800
C961        C  0.07381043  0.22971811  0.40734206    -0.07200
C962        C  0.08570259  0.23410052  0.40834578    -0.03300
C963        C  0.08925288  0.24019420  0.41898659    -0.08600
C964        C  0.08097988  0.24187187  0.42849380    -0.16300
H965        H  0.02474666  0.25937930  0.46877159     0.11900
H966        H  0.04154945  0.25928970  0.45416973     0.11200
H967        H  0.04205988  0.22016731  0.45485106     0.11100
H968        H  0.02528010  0.22012308  0.46943529     0.11600
H969        H  0.05644327  0.22789071  0.41589256     0.11700
H970        H  0.07096016  0.22494905  0.39922157     0.11700
H971        H  0.09838049  0.24368207  0.41985985     0.11800
H972        H  0.08382416  0.24658795  0.43665404     0.10600
C973        C  0.91156306  0.26058985  0.60750809    -0.03200
C974        C  0.90904512  0.27221361  0.61212363    -0.09000
C975        C  0.91842353  0.27970052  0.61617316    -0.16600
C976        C  0.93041377  0.27562793  0.61571531     0.25500
C977        C  0.93301546  0.26406414  0.61110010    -0.18300
C978        C  0.92362948  0.25655653  0.60704043    -0.07200
C979        C  0.93992043  0.28310793  0.62057280    -0.13600
C980        C  0.94751436  0.28933994  0.62536004    -0.13400
C981        C  0.95617408  0.29654322  0.63193068     0.25400
C982        C  0.95935781  0.29321777  0.64376678    -0.18800
C983        C  0.96760222  0.30022905  0.65034016    -0.07200
C984        C  0.97275830  0.31070529  0.64516479    -0.03300
C985        C  0.96949475  0.31401702  0.63326459    -0.08600
C986        C  0.96124208  0.30695118  0.62667849    -0.16300
H987        H  0.89980668  0.27548140  0.61262313     0.11900
H988        H  0.91630937  0.28859881  0.61981404     0.11200
H989        H  0.94225876  0.26077205  0.61084835     0.11100
H990        H  0.92577541  0.24750852  0.60384606     0.11600
H991        H  0.95544851  0.28520568  0.64792910     0.11700
H992        H  0.96992681  0.29744352  0.65948603     0.11700
H993        H  0.97335700  0.32200931  0.62903901     0.11800
H994        H  0.95880182  0.30961024  0.61752139     0.10600
C995        C  0.88573454  0.23110236  0.58473647    -0.03200
C996        C  0.87986870  0.22027571  0.58803158    -0.09000
C997        C  0.87453796  0.21292206  0.57916713    -0.16600
C998        C  0.87494153  0.21636926  0.56693663     0.25500
C999        C  0.88086927  0.22709297  0.56356865    -0.18300
C1000       C  0.88622921  0.23444310  0.57242575    -0.07200
C1001       C  0.86872029  0.20924935  0.55793986    -0.13600
C1002       C  0.86302856  0.20365683  0.55045904    -0.13400
C1003       C  0.85581893  0.19746244  0.54151883     0.25400
C1004       C  0.85977835  0.18646186  0.53653702    -0.18800
C1005       C  0.85282184  0.18059263  0.52768293    -0.07200
C1006       C  0.84183864  0.18570093  0.52369322    -0.03300
C1007       C  0.83789147  0.19670532  0.52883679    -0.08600
C1008       C  0.84484203  0.20253430  0.53770237    -0.16300
H1009       H  0.87932913  0.21757538  0.59748018     0.11900
H1010       H  0.86991420  0.20467333  0.58187155     0.11200
H1011       H  0.88111714  0.22990415  0.55413579     0.11100
H1012       H  0.89040088  0.24291019  0.56969450     0.11600
H1013       H  0.86826361  0.18246222  0.53944161     0.11700
H1014       H  0.85609576  0.17213318  0.52387957     0.11700
H1015       H  0.82946239  0.20083990  0.52597424     0.11800
H1016       H  0.84169117  0.21103924  0.54152590     0.10600
C1017       C  0.91034927  0.24435316  0.58460296    -0.03200
C1018       C  0.91510912  0.23293542  0.58151445    -0.09000
C1019       C  0.92405748  0.23193759  0.57258361    -0.16600
C1020       C  0.92831537  0.24234701  0.56665143     0.25500
C1021       C  0.92357968  0.25375714  0.56968428    -0.18300
C1022       C  0.91463377  0.25475778  0.57861572    -0.07200
C1023       C  0.93749434  0.24134052  0.55741898    -0.13600
C1024       C  0.94512319  0.24074439  0.54960238    -0.13400
C1025       C  0.95414403  0.24044348  0.54016489     0.25400
C1026       C  0.95855911  0.25132551  0.53532482    -0.18800
C1027       C  0.96724024  0.25112439  0.52609220    -0.07200
C1028       C  0.97163848  0.24001234  0.52157015    -0.03300
C1029       C  0.96716926  0.22910523  0.52649944    -0.08600
C1030       C  0.95846575  0.22933099  0.53574078    -0.16300
H1031       H  0.91192926  0.22483855  0.58609416     0.11900
H1032       H  0.92765548  0.22306718  0.57031298     0.11200
H1033       H  0.92678785  0.26186809  0.56513430     0.11100
H1034       H  0.91099182  0.26361364  0.58084254     0.11600
H1035       H  0.95527960  0.25997674  0.53868053     0.11700
H1036       H  0.97052044  0.25967478  0.52251252     0.11700
H1037       H  0.97039457  0.22041114  0.52322126     0.11800
H1038       H  0.95510497  0.22084993  0.53942287     0.10600
C1039       C  0.91385914  0.25030648  0.38045623    -0.03200
C1040       C  0.91928617  0.25963232  0.38727629    -0.09000
C1041       C  0.92897280  0.26624876  0.38245447    -0.16600
C1042       C  0.93329509  0.26359622  0.37079003     0.25500
C1043       C  0.92803200  0.25420079  0.36403741    -0.18300
C1044       C  0.91833262  0.24762489  0.36882046    -0.07200
C1045       C  0.94275057  0.27080763  0.36545788    -0.13600
C1046       C  0.95031941  0.27675508  0.36029352    -0.13400
C1047       C  0.95902661  0.28360074  0.35341979     0.25400
C1048       C  0.96213797  0.27981777  0.34169154    -0.18800
C1049       C  0.97054153  0.28642831  0.33490277    -0.07200
C1050       C  0.97592437  0.29694283  0.33976237    -0.03300
C1051       C  0.97269166  0.30073105  0.35153662    -0.08600
C1052       C  0.96429048  0.29407920  0.35832779    -0.16300
H1053       H  0.91580825  0.26204319  0.39615211     0.11900
H1054       H  0.93292722  0.27357002  0.38771358     0.11200
H1055       H  0.93128840  0.25210021  0.35498893     0.11100
H1056       H  0.91425064  0.24049451  0.36340409     0.11600
H1057       H  0.95807640  0.27174151  0.33779648     0.11700
H1058       H  0.97283961  0.28329066  0.32586380     0.11700
H1059       H  0.97671164  0.30877410  0.35552633     0.11800
H1060       H  0.96191356  0.29709615  0.36739229     0.10600
C1061       C  0.88455515  0.22839361  0.40717557    -0.03200
C1062       C  0.89113087  0.21966185  0.41375159    -0.09000
C1063       C  0.88569348  0.21339706  0.42334807    -0.16600
C1064       C  0.87360106  0.21569054  0.42636601     0.25500
C1065       C  0.86695661  0.22427860  0.41977570    -0.18300
C1066       C  0.87239262  0.23057358  0.41020507    -0.07200
C1067       C  0.86793706  0.20915158  0.43612286    -0.13600
C1068       C  0.86284958  0.20385179  0.44421445    -0.13400
C1069       C  0.85624430  0.19790463  0.45375182     0.25400
C1070       C  0.84628631  0.20372897  0.45899668    -0.18800
C1071       C  0.83961216  0.19793765  0.46806327    -0.07200
C1072       C  0.84282019  0.18621946  0.47201606    -0.03300
C1073       C  0.85291786  0.18045812  0.46678007    -0.08600
C1074       C  0.85958580  0.18627957  0.45767346    -0.16300
H1075       H  0.90038841  0.21751770  0.41134780     0.11900
H1076       H  0.89087785  0.20668962  0.42833223     0.11200
H1077       H  0.85757223  0.22608303  0.42201376     0.11100
H1078       H  0.86712444  0.23719514  0.40520113     0.11600
H1079       H  0.84362713  0.21272424  0.45601866     0.11700
H1080       H  0.83189535  0.20261961  0.47192803     0.11700
H1081       H  0.85558495  0.17143324  0.46963354     0.11800
H1082       H  0.86728315  0.18169489  0.45364542     0.10600
C1083       C  0.91026194  0.23947468  0.40610217    -0.03200
C1084       C  0.92185784  0.23459992  0.40421149    -0.09000
C1085       C  0.93026910  0.23426200  0.41370737    -0.16600
C1086       C  0.92717223  0.23877746  0.42519547     0.25500
C1087       C  0.91564152  0.24372433  0.42711588    -0.18300
C1088       C  0.90723231  0.24408891  0.41760970    -0.07200
C1089       C  0.93586845  0.23840172  0.43495676    -0.13600
C1090       C  0.94335801  0.23821700  0.44294594    -0.13400
C1091       C  0.95256045  0.23833180  0.45223806     0.25400
C1092       C  0.95644736  0.24939161  0.45715236    -0.18800
C1093       C  0.96562815  0.24961693  0.46590231    -0.07200
C1094       C  0.97105400  0.23875915  0.46988584    -0.03300
C1095       C  0.96701657  0.22766174  0.46498488    -0.08600
C1096       C  0.95783887  0.22746201  0.45619804    -0.16300
H1097       H  0.92430783  0.23092860  0.39542191     0.11900
H1098       H  0.93916528  0.23043153  0.41210678     0.11200
H1099       H  0.91315346  0.24728324  0.43594964     0.11100
H1100       H  0.89834689  0.24793002  0.41919821     0.11600
H1101       H  0.95243166  0.25786007  0.45416345     0.11700
H1102       H  0.96848193  0.25830105  0.46954033     0.05700
H1103       H  0.97099243  0.21915165  0.46788608     0.11800
H1104       H  0.95491113  0.21884374  0.45244883     0.10600
C1105       C  0.02964629  0.63946347  0.31831050    -0.03200
C1106       C  0.03421395  0.62896144  0.32396299    -0.09000
C1107       C  0.04319959  0.62205298  0.31829116    -0.16600
C1108       C  0.04766993  0.62557164  0.30693526     0.25500
C1109       C  0.04315911  0.63598520  0.30124746    -0.18300
C1110       C  0.03420259  0.64290306  0.30689333    -0.07200
C1111       C  0.05692796  0.61859965  0.30104857    -0.13600
C1112       C  0.06470877  0.61335915  0.29549255    -0.13400
C1113       C  0.07394157  0.60790116  0.28814704     0.25400
C1114       C  0.07136928  0.60474550  0.27610550    -0.18800
C1115       C  0.08051303  0.60019656  0.26863920    -0.07200
C1116       C  0.09230643  0.59870613  0.27318045    -0.03300
C1117       C  0.09482412  0.60185385  0.28528676    -0.08600
C1118       C  0.08565688  0.60639767  0.29275897    -0.16300
H1119       H  0.03086269  0.62610113  0.33275504     0.11900
H1120       H  0.04665805  0.61399592  0.32275218     0.11200
H1121       H  0.04657770  0.63876529  0.29244784     0.11100
H1122       H  0.03084318  0.65093000  0.30231260     0.11600
H1123       H  0.06235987  0.60604208  0.27241717     0.11700
H1124       H  0.07844330  0.59818427  0.25923560     0.11700
H1125       H  0.10388668  0.60084742  0.28892001     0.11800
H1126       H  0.08774208  0.60892071  0.30204637     0.10600
C1127       C  0.11520156  0.57686469  0.24086256    -0.03200
C1128       C  0.11300961  0.56435608  0.24211847    -0.09000
C1129       C  0.11667444  0.55627042  0.23305189    -0.16600
C1130       C  0.12264320  0.56059830  0.22270766     0.25500
C1131       C  0.12485811  0.57304134  0.22139727    -0.18300
C1132       C  0.12117622  0.58113661  0.23044207    -0.07200
C1133       C  0.12723857  0.55220314  0.21385742    -0.13600
C1134       C  0.13192871  0.54510212  0.20700361    -0.13400
C1135       C  0.13851812  0.53658163  0.19967198     0.25400
C1136       C  0.15009768  0.53297489  0.20332842    -0.18800
C1137       C  0.15658838  0.52457289  0.19643318    -0.07200
C1138       C  0.15157613  0.51967407  0.18575396    -0.03300
C1139       C  0.13994927  0.52340443  0.18208094    -0.08600
C1140       C  0.13344542  0.53181664  0.18902937    -0.16300
H1141       H  0.10876812  0.56078953  0.25023070     0.11900
H1142       H  0.11509313  0.54662725  0.23423059     0.11200
H1143       H  0.12959142  0.57645873  0.21348232     0.11100
H1144       H  0.12301914  0.59073672  0.22932496     0.11600
H1145       H  0.15409591  0.53662397  0.21155377     0.11700
H1146       H  0.16552071  0.52189245  0.19948853     0.11700
H1147       H  0.13585749  0.51976232  0.17390814     0.11800
H1148       H  0.12447367  0.53455943  0.18613719     0.10600
C1149       C  0.09122769  0.57724959  0.25536526    -0.03200
C1150       C  0.08564883  0.57589099  0.24397512    -0.09000
C1151       C  0.07585397  0.56794078  0.24255655    -0.16600
C1152       C  0.07156117  0.56127815  0.25251211     0.25500
C1153       C  0.07709363  0.56262970  0.26389035    -0.18300
C1154       C  0.08686235  0.57058419  0.26531415    -0.07200
C1155       C  0.06154767  0.55299112  0.25109520    -0.13600
C1156       C  0.05326933  0.54587040  0.25028723    -0.13400
C1157       C  0.04355094  0.53713280  0.24980395     0.25400
C1158       C  0.04018035  0.53086502  0.26033366    -0.18800
C1159       C  0.03090698  0.52222405  0.25991809    -0.07200
C1160       C  0.02488321  0.51968821  0.24893273    -0.03300
C1161       C  0.02827999  0.52607300  0.23839449    -0.08600
C1162       C  0.03754871  0.53475193  0.23884135    -0.16300
H1163       H  0.08886363  0.58103707  0.23623980     0.11900
H1164       H  0.07164195  0.56698342  0.23371454     0.11200
H1165       H  0.07387040  0.55751665  0.27165410     0.11100
H1166       H  0.09109801  0.57151042  0.27414178     0.11600
H1167       H  0.04476609  0.53261314  0.26886596     0.11700
H1168       H  0.02853431  0.51744702  0.26818156     0.11700
H1169       H  0.02380706  0.52433426  0.22980747     0.11800
H1170       H  0.04007679  0.53954817  0.23063023     0.10600
C1171       C  0.02552442  0.33372866  0.30096124    -0.03200
C1172       C  0.03127222  0.34405714  0.30580407    -0.09000
C1173       C  0.03866403  0.35129835  0.29847505    -0.16600
C1174       C  0.04033778  0.34834917  0.28622089     0.25500
C1175       C  0.03474867  0.33802804  0.28134837    -0.18300
C1176       C  0.02739677  0.33074083  0.28867276    -0.07200
C1177       C  0.04801944  0.35575000  0.27872503    -0.13600
C1178       C  0.05497634  0.36155241  0.27262074    -0.13400
C1179       C  0.06415427  0.36765147  0.26567280     0.25400
C1180       C  0.06112110  0.37453640  0.25540776    -0.18800
C1181       C  0.07026414  0.37973348  0.24829133    -0.07200
C1182       C  0.08249346  0.37810772  0.25144680    -0.03300
C1183       C  0.08540563  0.37135847  0.26187208    -0.08600
C1184       C  0.07629719  0.36618504  0.26894199    -0.16300
H1185       H  0.02998520  0.34658946  0.31522672     0.11900
H1186       H  0.04302786  0.35922338  0.30235011     0.11200
H1187       H  0.03604007  0.33563700  0.27188317     0.11100
H1188       H  0.02301955  0.32289512  0.28466750     0.11600
H1189       H  0.05173558  0.37564667  0.25275726     0.11700
H1190       H  0.06779473  0.38464002  0.24013844     0.11700
H1191       H  0.09476574  0.36997160  0.26447355     0.11800
H1192       H  0.07874010  0.36084871  0.27684443     0.10600
C1193       C  0.15196350  0.46862188  0.18436847    -0.03200
C1194       C  0.15597306  0.46445632  0.19575998    -0.09000
C1195       C  0.14942001  0.45559637  0.20201859    -0.16600
C1196       C  0.13881503  0.45082021  0.19696066     0.25500
C1197       C  0.13475700  0.45490561  0.18564036    -0.18300
C1198       C  0.14128272  0.46376911  0.17937115    -0.07200
C1199       C  0.13220123  0.44156204  0.20326815    -0.13600
C1200       C  0.12677479  0.43355309  0.20831412    -0.13400
C1201       C  0.12056653  0.42367053  0.21406337     0.25400
C1202       C  0.11472662  0.42542364  0.22520616    -0.18800
C1203       C  0.10900149  0.41567459  0.23093924    -0.07200
C1204       C  0.10899695  0.40411679  0.22550910    -0.03300
C1205       C  0.11487807  0.40244299  0.21432627    -0.08600
C1206       C  0.12060310  0.41218857  0.20861229    -0.16300
H1207       H  0.16414876  0.46805404  0.19984152     0.11900
H1208       H  0.15263396  0.45245408  0.21077533     0.11200
H1209       H  0.12656708  0.45122133  0.18165053     0.11100
H1210       H  0.13797194  0.46681246  0.17062252     0.11600
H1211       H  0.11475296  0.43426694  0.22953767     0.11700
H1212       H  0.10487281  0.41710371  0.23974263     0.11700
H1213       H  0.11506636  0.39358232  0.21004277     0.11800
H1214       H  0.12515021  0.41074865  0.20000698     0.10600
C1215       C  0.08436679  0.40327586  0.23861934    -0.03200
C1216       C  0.08001846  0.40855532  0.22784526    -0.09000
C1217       C  0.07185764  0.41826005  0.22828967    -0.16600
C1218       C  0.06794533  0.42279288  0.23951383     0.25500
C1219       C  0.07222770  0.41754244  0.25029276    -0.18300
C1220       C  0.08040546  0.40783785  0.24985155    -0.07200
C1221       C  0.05946480  0.43274440  0.23998253    -0.13600
C1222       C  0.05220436  0.44092350  0.24058885    -0.13400
C1223       C  0.04329200  0.45043025  0.24173813     0.25400
C1224       C  0.03919228  0.45387289  0.25326809    -0.18800
C1225       C  0.03028022  0.46281458  0.25446838    -0.07200
C1226       C  0.02531284  0.46844761  0.24413091    -0.03300
C1227       C  0.02956814  0.46502551  0.23256832    -0.08600
C1228       C  0.03850130  0.45606934  0.23138966    -0.16300
H1229       H  0.08297442  0.40513653  0.21910958     0.11900
H1230       H  0.06860218  0.42222158  0.21988998     0.11200
H1231       H  0.06927149  0.42097225  0.25903184     0.11100
H1232       H  0.08376289  0.40396179  0.25824071     0.11600
H1233       H  0.04282244  0.44957494  0.26134194     0.11700
H1234       H  0.02722041  0.46525258  0.26349428     0.11700
H1235       H  0.02594762  0.46921220  0.22443875     0.11800
H1236       H  0.04159996  0.45348227  0.22241294     0.10600
C1237       C  0.91060163  0.60040383  0.27816909    -0.03200
C1238       C  0.91776584  0.59285145  0.28552223    -0.09000
C1239       C  0.92834663  0.59735092  0.29084724    -0.16600
C1240       C  0.93181544  0.60941599  0.28884982     0.25500
C1241       C  0.92471399  0.61695973  0.28150445    -0.18300
C1242       C  0.91411206  0.61249286  0.27623637    -0.07200
C1243       C  0.94240594  0.61426422  0.29464616    -0.13600
C1244       C  0.95089454  0.61904261  0.29956376    -0.13400
C1245       C  0.96052096  0.62554819  0.30543358     0.25400
C1246       C  0.96672054  0.63464702  0.29911709    -0.18800
C1247       C  0.97562266  0.64148908  0.30498639    -0.07200
C1248       C  0.97843952  0.63927377  0.31724954    -0.03300
C1249       C  0.97227107  0.62999993  0.32348589    -0.08600
C1250       C  0.96332760  0.62320068  0.31760634    -0.16300
H1251       H  0.91507375  0.58355845  0.28728781     0.11900
H1252       H  0.93373885  0.59148026  0.29660534     0.11200
H1253       H  0.92731163  0.62632414  0.27995134     0.11100
H1254       H  0.90867127  0.61843995  0.27060729     0.11600
H1255       H  0.96456797  0.63655363  0.28970016     0.11700
H1256       H  0.98026069  0.64853782  0.29994373     0.11700
H1257       H  0.97424051  0.62811214  0.33294006     0.11800
H1258       H  0.95851448  0.61621695  0.32258431     0.10600
C1259       C  0.88057998  0.57486266  0.25605731    -0.03200
C1260       C  0.86939208  0.56981942  0.25941686    -0.09000
C1261       C  0.86365252  0.56139724  0.25186530    -0.16600
C1262       C  0.86899817  0.55803308  0.24084380     0.25500
C1263       C  0.88019157  0.56296220  0.23747388    -0.18300
C1264       C  0.88596216  0.57135509  0.24504191    -0.07200
C1265       C  0.86280520  0.54987109  0.23278109    -0.13600
C1266       C  0.85770984  0.54329890  0.22568618    -0.13400
C1267       C  0.85204521  0.53565817  0.21676580     0.25400
C1268       C  0.85695474  0.53495905  0.20508142    -0.18800
C1269       C  0.85172410  0.52733874  0.19641192    -0.07200
C1270       C  0.84148522  0.52031889  0.19932380    -0.03300
C1271       C  0.83647664  0.52121525  0.21103971    -0.08600
C1272       C  0.84175502  0.52884584  0.21972530    -0.16300
H1273       H  0.86507421  0.57246324  0.26785064     0.11900
H1274       H  0.85497550  0.55765443  0.25452848     0.11200
H1275       H  0.88434889  0.56048022  0.22890658     0.11100
H1276       H  0.89443082  0.57535988  0.24212535     0.11600
H1277       H  0.86489960  0.54022589  0.20270157     0.11700
H1278       H  0.85577306  0.52686081  0.18746256     0.11700
H1279       H  0.82861185  0.51589704  0.21353864     0.11800
H1280       H  0.83788455  0.52935250  0.22875766     0.10600
C1281       C  0.90753313  0.57678782  0.26361066    -0.03200
C1282       C  0.90620686  0.56444241  0.26652387    -0.09000
C1283       C  0.91563167  0.55625681  0.26426870    -0.16600
C1284       C  0.92648771  0.56032796  0.25909292     0.25500
C1285       C  0.92780322  0.57260228  0.25602078    -0.18300
C1286       C  0.91836447  0.58078126  0.25823156    -0.07200
C1287       C  0.93633430  0.55195064  0.25715607    -0.13600
C1288       C  0.94454772  0.54484627  0.25577733    -0.13400
C1289       C  0.95425814  0.53620626  0.25435995     0.25400
C1290       C  0.95779028  0.53238766  0.24275260    -0.18800
C1291       C  0.96706212  0.52382534  0.24139924    -0.07200
C1292       C  0.97291229  0.51894259  0.25165898    -0.03300
C1293       C  0.96934825  0.52289149  0.26328468    -0.08600
C1294       C  0.96009211  0.53146854  0.26461325    -0.16300
H1295       H  0.89795776  0.56121737  0.27074632     0.11900
H1296       H  0.91450907  0.54678630  0.26669317     0.11200
H1297       H  0.93614671  0.57586276  0.25199929     0.11100
H1298       H  0.91951176  0.59024887  0.25583709     0.11600
H1299       H  0.95333906  0.53598221  0.23474858     0.11700
H1300       H  0.96959069  0.52096991  0.23232989     0.11700
H1301       H  0.97368576  0.51932843  0.27135861     0.11800
H1302       H  0.95744235  0.53435531  0.27364419     0.10600
C1303       C  0.97575520  0.33453781  0.30308595    -0.03200
C1304       C  0.97065792  0.32997624  0.29229202    -0.09000
C1305       C  0.96224759  0.33682845  0.28576836    -0.16600
C1306       C  0.95881321  0.34833127  0.28991195     0.25500
C1307       C  0.96377422  0.35295590  0.30067564    -0.18300
C1308       C  0.97220595  0.34609326  0.30724507    -0.07200
C1309       C  0.95023586  0.35529834  0.28298904    -0.13600
C1310       C  0.94301127  0.36044012  0.27660249    -0.13400
C1311       C  0.93431381  0.36578833  0.26849357     0.25400
C1312       C  0.92981027  0.37746544  0.27069440    -0.18800
C1313       C  0.92112354  0.38246835  0.26292505    -0.07200
C1314       C  0.91691826  0.37585146  0.25284047    -0.03300
C1315       C  0.92149343  0.36414525  0.25069452    -0.08600
C1316       C  0.93017595  0.35916169  0.25845682    -0.16300
H1317       H  0.97320936  0.32112418  0.28884233     0.11900
H1318       H  0.95845520  0.33316769  0.27745055     0.11200
H1319       H  0.96116859  0.36186157  0.30395559     0.11100
H1320       H  0.97600448  0.34985536  0.31550515     0.11600
H1321       H  0.93288216  0.38262575  0.27849776     0.11700
H1322       H  0.91745647  0.39134400  0.26500739     0.11700
H1323       H  0.91831047  0.35884729  0.24303262     0.11800
H1324       H  0.93358051  0.35009847  0.25669720     0.10600
C1325       C  0.84795919  0.47037347  0.19073935    -0.03200
C1326       C  0.84300049  0.46359293  0.20035587    -0.09000
C1327       C  0.84978972  0.45449848  0.20598301    -0.16600
C1328       C  0.86159456  0.45207232  0.20207430     0.25500
C1329       C  0.86660900  0.45875134  0.19250695    -0.18300
C1330       C  0.85983507  0.46786862  0.18686448    -0.07200
C1331       C  0.86846238  0.44261883  0.20782512    -0.13600
C1332       C  0.87374123  0.43443924  0.21277373    -0.13400
C1333       C  0.87934122  0.42432091  0.21876921     0.25400
C1334       C  0.89152049  0.42152241  0.21661684    -0.18800
C1335       C  0.89677316  0.41139863  0.22218754    -0.07200
C1336       C  0.88987542  0.40404278  0.22998713    -0.03300
C1337       C  0.87767274  0.40692205  0.23209301    -0.08600
C1338       C  0.87244807  0.41703807  0.22654851    -0.16300
H1339       H  0.83388183  0.46531618  0.20354015     0.11900
H1340       H  0.84582732  0.44934720  0.21336921     0.11200
H1341       H  0.87573607  0.45690355  0.18940399     0.11100
H1342       H  0.86388050  0.47293678  0.17947542     0.11600
H1343       H  0.89689783  0.42706608  0.21053172     0.11700
H1344       H  0.90611963  0.40918445  0.22021682     0.11700
H1345       H  0.87219821  0.40134367  0.23805313     0.11800
H1346       H  0.86300528  0.41911697  0.22824005     0.10600
C1347       C  0.91466299  0.40199808  0.24281826    -0.03200
C1348       C  0.91128563  0.41308486  0.24815320    -0.09000
C1349       C  0.91969652  0.42254140  0.24922839    -0.16600
C1350       C  0.93156255  0.42100002  0.24498419     0.25500
C1351       C  0.93499799  0.40990635  0.23978037    -0.18300
C1352       C  0.92660066  0.40045067  0.23872079    -0.07200
C1353       C  0.94017146  0.43082971  0.24576764    -0.13600
C1354       C  0.94748371  0.43898257  0.24617134    -0.13400
C1355       C  0.95633022  0.44862785  0.24646556     0.25400
C1356       C  0.96226571  0.45152332  0.25733220    -0.18800
C1357       C  0.97092722  0.46080368  0.25759930    -0.07200
C1358       C  0.97381163  0.46730121  0.24697250    -0.03300
C1359       C  0.96779967  0.46433363  0.23609091    -0.08600
C1360       C  0.95910791  0.45507251  0.23585498    -0.16300
H1361       H  0.90213580  0.41438796  0.25143405     0.11900
H1362       H  0.91692961  0.43106765  0.25328966     0.11200
H1363       H  0.94413899  0.40860101  0.23645375     0.11100
H1364       H  0.92932749  0.39197350  0.23454609     0.11600
H1365       H  0.96021888  0.44659137  0.26559881     0.11700
H1366       H  0.97541409  0.46284330  0.26611281     0.11700
H1367       H  0.96979992  0.46917567  0.22776669     0.11800
H1368       H  0.95457994  0.45291584  0.22738621     0.10600
C1369       C  0.69276437  0.64830935  0.02279178    -0.03200
C1370       C  0.69013647  0.63596740  0.02478649    -0.09000
C1371       C  0.69726703  0.62908528  0.03266325    -0.16600
C1372       C  0.70706740  0.63446203  0.03864272     0.25500
C1373       C  0.70979161  0.64672082  0.03668557    -0.18300
C1374       C  0.70269967  0.65361789  0.02875987    -0.07200
C1375       C  0.71400288  0.62753382  0.04718587    -0.13600
C1376       C  0.71942115  0.62205494  0.05490789    -0.13400
C1377       C  0.72540057  0.61617528  0.06484946     0.25400
C1378       C  0.73286075  0.62298179  0.07254378    -0.18800
C1379       C  0.73798144  0.61758535  0.08278859    -0.07200
C1380       C  0.73574810  0.60531029  0.08537767    -0.03300
C1381       C  0.72835313  0.59847298  0.07755239    -0.08600
C1382       C  0.72320692  0.60389634  0.06730389    -0.16300
H1383       H  0.68257796  0.63162463  0.02025464     0.11900
H1384       H  0.69507347  0.61960968  0.03417264     0.11200
H1385       H  0.71733057  0.65096341  0.04135514     0.11100
H1386       H  0.70491522  0.66310282  0.02739020     0.11600
H1387       H  0.73453027  0.63251436  0.07074867     0.11700
H1388       H  0.74362496  0.62300487  0.08874993     0.11700
H1389       H  0.72628391  0.58907041  0.07954525     0.11800
H1390       H  0.71732161  0.59860362  0.06145871     0.10600
C1391       C  0.75586463  0.57756367  0.11484286    -0.03200
C1392       C  0.75244047  0.57260597  0.12607703    -0.09000
C1393       C  0.75980950  0.56406087  0.13181800    -0.16600
C1394       C  0.77070491  0.56047901  0.12642084     0.25500
C1395       C  0.77408434  0.56522655  0.11512642    -0.18300
C1396       C  0.76669280  0.57374661  0.10934898    -0.07200
C1397       C  0.77864518  0.55235172  0.13275096    -0.13600
C1398       C  0.78530295  0.54578137  0.13836484    -0.13400
C1399       C  0.79313658  0.53798168  0.14522238     0.25400
C1400       C  0.80492350  0.53571148  0.14117004    -0.18800
C1401       C  0.81243164  0.52783852  0.14766725    -0.07200
C1402       C  0.80819293  0.52213422  0.15827588    -0.03300
C1403       C  0.79639629  0.52463905  0.16238632    -0.08600
C1404       C  0.78891868  0.53253317  0.15588864    -0.16300
H1405       H  0.74415526  0.57549518  0.13048310     0.11900
H1406       H  0.75714369  0.56044700  0.14057441     0.11200
H1407       H  0.78255622  0.56256426  0.11093445     0.11100
H1408       H  0.76967348  0.57769255  0.10085307     0.11600
H1409       H  0.80825865  0.53991608  0.13292323     0.11700
H1410       H  0.82145733  0.52604370  0.14426511     0.11700
H1411       H  0.79288733  0.52037304  0.17052193     0.11800
H1412       H  0.77980772  0.53427527  0.15910203     0.10600
C1413       C  0.74840643  0.58050654  0.08790064    -0.03200
C1414       C  0.74406772  0.56854743  0.08870652    -0.09000
C1415       C  0.74551234  0.56051239  0.07895935    -0.16600
C1416       C  0.75136855  0.56433520  0.06833375     0.25500
C1417       C  0.75596453  0.57617431  0.06759571    -0.18300
C1418       C  0.75449964  0.58421913  0.07733359    -0.07200
C1419       C  0.75220414  0.55627203  0.05803595    -0.13600
C1420       C  0.75235434  0.54957272  0.04934508    -0.13400
C1421       C  0.75189647  0.54158469  0.03896303     0.25400
C1422       C  0.76252459  0.53832220  0.03283543    -0.18800
C1423       C  0.76200045  0.53052319  0.02278599    -0.07200
C1424       C  0.75081947  0.52589601  0.01873682    -0.03300
C1425       C  0.74019366  0.52926840  0.02493359    -0.08600
C1426       C  0.74074110  0.53705001  0.03496681    -0.16300
H1427       H  0.73929048  0.56556895  0.09676369     0.11900
H1428       H  0.74188386  0.55139332  0.07962689     0.11200
H1429       H  0.76050655  0.57924349  0.05942849     0.11100
H1430       H  0.75795734  0.59339161  0.07660180     0.11600
H1431       H  0.77121345  0.54177790  0.03583932     0.11700
H1432       H  0.77033971  0.52807844  0.01822534     0.11700
H1433       H  0.73145026  0.52584560  0.02207011     0.11800
H1434       H  0.73245398  0.53950863  0.03962911     0.10600
C1435       C  0.69293268  0.34676018  0.02429918    -0.03200
C1436       C  0.70388305  0.34171412  0.02843373    -0.09000
C1437       C  0.71176300  0.34852954  0.03561597    -0.16600
C1438       C  0.70883504  0.36047422  0.03875806     0.25500
C1439       C  0.69786668  0.36554271  0.03487865    -0.18300
C1440       C  0.68992541  0.35870902  0.02768622    -0.07200
C1441       C  0.71721518  0.36741308  0.04592533    -0.13600
C1442       C  0.72474509  0.37236519  0.05209322    -0.13400
C1443       C  0.73397949  0.37728506  0.05984814     0.25400
C1444       C  0.74399059  0.38331147  0.05488253    -0.18800
C1445       C  0.75319657  0.38760227  0.06248904    -0.07200
C1446       C  0.75239440  0.38595996  0.07512225    -0.03300
C1447       C  0.74236983  0.37982008  0.08000260    -0.08600
C1448       C  0.73320133  0.37553275  0.07240648    -0.16300
H1449       H  0.70644755  0.33253605  0.02599224     0.11900
H1450       H  0.72020981  0.34451552  0.03862149     0.11200
H1451       H  0.69551660  0.37478618  0.03730630     0.11100
H1452       H  0.68157393  0.36283533  0.02459322     0.11600
H1453       H  0.74474424  0.38456205  0.04514619     0.11700
H1454       H  0.76099074  0.39203998  0.05850497     0.11700
H1455       H  0.74160123  0.37841430  0.08971407     0.11800
H1456       H  0.72554613  0.37077737  0.07631837     0.10600
C1457       C  0.78169451  0.41251232  0.09705009    -0.03200
C1458       C  0.79355164  0.41137387  0.10152031    -0.09000
C1459       C  0.79915778  0.42114922  0.10733752    -0.16600
C1460       C  0.79293776  0.43212493  0.10879083     0.25500
C1461       C  0.78125218  0.43344547  0.10405355    -0.18300
C1462       C  0.77563708  0.42367755  0.09822340    -0.07200
C1463       C  0.79809347  0.44158869  0.11612144    -0.13600
C1464       C  0.80209041  0.44898579  0.12310651    -0.13400
C1465       C  0.80660659  0.45727308  0.13210261     0.25400
C1466       C  0.80048040  0.45859933  0.14315761    -0.18800
C1467       C  0.80496398  0.46647250  0.15205022    -0.07200
C1468       C  0.81565207  0.47308494  0.14996726    -0.03300
C1469       C  0.82174652  0.47167912  0.13882401    -0.08600
C1470       C  0.81724043  0.46381353  0.12994842    -0.16300
H1471       H  0.79834193  0.40281906  0.10078722     0.11900
H1472       H  0.80817324  0.42001742  0.11106144     0.11200
H1473       H  0.77631188  0.44186234  0.10527743     0.11100
H1474       H  0.76636453  0.42468209  0.09519791     0.11600
H1475       H  0.79225475  0.45352570  0.14491161     0.11700
H1476       H  0.80007620  0.46738317  0.16053186     0.11700
H1477       H  0.82998514  0.47667526  0.13694709     0.11800
H1478       H  0.82206053  0.46281223  0.12143159     0.10600
C1479       C  0.75299880  0.47490290  0.01475697    -0.03200
C1480       C  0.76463725  0.47128079  0.01851151    -0.09000
C1481       C  0.76607249  0.46199839  0.02706507    -0.16600
C1482       C  0.75591571  0.45618101  0.03196321     0.25500
C1483       C  0.74430174  0.45965543  0.02821603    -0.18300
C1484       C  0.74284087  0.46896394  0.01967786    -0.07200
C1485       C  0.75743719  0.44672918  0.04089624    -0.13600
C1486       C  0.75892223  0.43887946  0.04840513    -0.13400
C1487       C  0.76097872  0.42952677  0.05733277     0.25400
C1488       C  0.75120832  0.42427057  0.06352241    -0.18800
C1489       C  0.75324537  0.41512094  0.07210928    -0.07200
C1490       C  0.76507181  0.41107782  0.07451853    -0.03300
C1491       C  0.77482924  0.41646647  0.06836756    -0.08600
C1492       C  0.77279459  0.42563734  0.05982559    -0.16300
H1493       H  0.77263929  0.47567835  0.01490698     0.11900
H1494       H  0.77510645  0.45939202  0.02989241     0.11200
H1495       H  0.73637291  0.45520814  0.03193306     0.11100
H1496       H  0.73377052  0.47152648  0.01695246     0.11600
H1497       H  0.74202966  0.42723343  0.06170416     0.11700
H1498       H  0.74562744  0.41117270  0.07687307     0.11700
H1499       H  0.78399838  0.41345048  0.07010862     0.11800
H1500       H  0.78042752  0.42964561  0.05511721     0.10600
C1501       C  0.73826186  0.61707516  0.90677599    -0.03200
C1502       C  0.74207977  0.62813913  0.91184495    -0.09000
C1503       C  0.73597158  0.63307024  0.92182914    -0.16600
C1504       C  0.72592418  0.62704081  0.92672402     0.25500
C1505       C  0.72209728  0.61600611  0.92170367    -0.18300
C1506       C  0.72822507  0.61104783  0.91177414    -0.07200
C1507       C  0.71925511  0.63234277  0.93661206    -0.13600
C1508       C  0.71331564  0.63677542  0.94465504    -0.13400
C1509       C  0.70601270  0.64214511  0.95404502     0.25400
C1510       C  0.69580061  0.63602451  0.95844239    -0.18800
C1511       C  0.68865521  0.64129183  0.96751943    -0.07200
C1512       C  0.69166714  0.65275091  0.97230518    -0.03300
C1513       C  0.70193211  0.65883855  0.96779536    -0.08600
C1514       C  0.70904403  0.65356546  0.95871795    -0.16300
H1515       H  0.74977213  0.63293824  0.90807131     0.11900
H1516       H  0.73898153  0.64163748  0.92562809     0.11200
H1517       H  0.71427531  0.61132029  0.92535890     0.11100
H1518       H  0.72496398  0.60264777  0.90782960     0.11600
H1519       H  0.69336933  0.62718096  0.95486385     0.11700
H1520       H  0.68083424  0.63637254  0.97083728     0.11700
H1521       H  0.70449445  0.66766674  0.97130339     0.11800
H1522       H  0.71691280  0.65839046  0.95535568     0.10600
C1523       C  0.80115644  0.52425324  0.83621090    -0.03200
C1524       C  0.80511049  0.52997410  0.84693536    -0.09000
C1525       C  0.79790829  0.53874622  0.85261405    -0.16600
C1526       C  0.78665089  0.54190100  0.84769010     0.25500
C1527       C  0.78262282  0.53625237  0.83702651    -0.18300
C1528       C  0.78982789  0.52748887  0.83131007    -0.07200
C1529       C  0.77935138  0.55102529  0.85355865    -0.13600
C1530       C  0.77370338  0.55887272  0.85870355    -0.13400
C1531       C  0.76757060  0.56855184  0.86500758     0.25400
C1532       C  0.75898997  0.57567530  0.85893898    -0.18800
C1533       C  0.75359988  0.58553114  0.86485690    -0.07200
C1534       C  0.75666421  0.58832406  0.87694189    -0.03300
C1535       C  0.76516964  0.58104751  0.88302886    -0.08600
C1536       C  0.77057869  0.57120811  0.87708885    -0.16300
H1537       H  0.81377786  0.52768665  0.85093209     0.11900
H1538       H  0.80112784  0.54307785  0.86085021     0.11200
H1539       H  0.77392930  0.53862717  0.83312442     0.11100
H1540       H  0.78651386  0.52322038  0.82308618     0.11600
H1541       H  0.75662167  0.57374251  0.84957859     0.11700
H1542       H  0.74710515  0.59105111  0.85996651     0.11700
H1543       H  0.76793571  0.58319575  0.89221994     0.11800
H1544       H  0.77729212  0.56582369  0.88183692     0.10600
C1545       C  0.74558391  0.52963898  0.96663451    -0.03200
C1546       C  0.73420400  0.53298632  0.96193637    -0.09000
C1547       C  0.73330619  0.54202506  0.95300810    -0.16600
C1548       C  0.74375501  0.54784826  0.94873081     0.25500
C1549       C  0.75505775  0.54473395  0.95355193    -0.18300
C1550       C  0.75597967  0.53569962  0.96241322    -0.07200
C1551       C  0.74306810  0.55681836  0.93920975    -0.13600
C1552       C  0.74337629  0.56428382  0.93118138    -0.13400
C1553       C  0.74454938  0.57329010  0.92174477     0.25400
C1554       C  0.75092008  0.58404335  0.92406342    -0.18800
C1555       C  0.75215688  0.59280297  0.91496480    -0.07200
C1556       C  0.74703254  0.59092372  0.90343193    -0.03300
C1557       C  0.74077729  0.58006580  0.90108359    -0.08600
C1558       C  0.73953875  0.57128600  0.91020689    -0.16300
H1559       H  0.72603910  0.52848535  0.96500540     0.11900
H1560       H  0.72449932  0.54436754  0.94935413     0.11200
H1561       H  0.76320139  0.54919431  0.95034662     0.11100
H1562       H  0.76486310  0.53338654  0.96588245     0.11600
H1563       H  0.75489995  0.58567351  0.93291820     0.11700
H1564       H  0.75703860  0.60111173  0.91690894     0.11700
H1565       H  0.73668278  0.57852529  0.89227573     0.11800
H1566       H  0.73462674  0.56298236  0.90828972     0.10600
C1567       C  0.72651270  0.38865550  0.90635831    -0.03200
C1568       C  0.71526834  0.38282236  0.90504181    -0.09000
C1569       C  0.70957989  0.37753767  0.91506881    -0.16600
C1570       C  0.71509815  0.37796371  0.92651114     0.25500
C1571       C  0.72625556  0.38384167  0.92792356    -0.18300
C1572       C  0.73195948  0.38913424  0.91789464    -0.07200
C1573       C  0.70951118  0.37198057  0.93668281    -0.13600
C1574       C  0.70487065  0.36664362  0.94503037    -0.13400
C1575       C  0.69933822  0.36000371  0.95481914     0.25400
C1576       C  0.68919556  0.36474232  0.96078455    -0.18800
C1577       C  0.68370155  0.35819323  0.97016668    -0.07200
C1578       C  0.68831388  0.34681890  0.97370781    -0.03300
C1579       C  0.69855538  0.34216249  0.96770350    -0.08600
C1580       C  0.70401177  0.34871262  0.95830249    -0.16300
H1581       H  0.71094226  0.38226382  0.89622212     0.11900
H1582       H  0.70097060  0.37296675  0.91386328     0.11200
H1583       H  0.73065707  0.38412216  0.93672245     0.11100
H1584       H  0.74079152  0.39322617  0.91909561     0.11600
H1585       H  0.68550786  0.37347572  0.95815616     0.11700
H1586       H  0.67585380  0.36203257  0.97464497     0.11700
H1587       H  0.70230925  0.33343050  0.97022008     0.11800
H1588       H  0.71185128  0.34495499  0.95372873     0.10600
C1589       C  0.75277061  0.41312225  0.87868162    -0.03200
C1590       C  0.76348925  0.40981907  0.87267320    -0.09000
C1591       C  0.77100768  0.41870837  0.86768860    -0.16600
C1592       C  0.76783945  0.43097904  0.86858042     0.25500
C1593       C  0.75713951  0.43435038  0.87451428    -0.18300
C1594       C  0.74961022  0.42545521  0.87952407    -0.07200
C1595       C  0.77539173  0.44003466  0.86303900    -0.13600
C1596       C  0.78163646  0.44740682  0.85794542    -0.13400
C1597       C  0.78883731  0.45605167  0.85137463     0.25400
C1598       C  0.79871808  0.46172183  0.85697455    -0.18800
C1599       C  0.80562082  0.47021057  0.85055224    -0.07200
C1600       C  0.80266672  0.47313209  0.83846699    -0.03300
C1601       C  0.79277085  0.46731676  0.83290223    -0.08600
C1602       C  0.78591685  0.45881695  0.83932180    -0.16300
H1603       H  0.76605773  0.40035472  0.87188804     0.11900
H1604       H  0.77923745  0.41600845  0.86305788     0.11200
H1605       H  0.75455629  0.44382534  0.87514618     0.11100
H1606       H  0.74124680  0.42818475  0.88386846     0.11600
H1607       H  0.80105265  0.45962015  0.86630407     0.11700
H1608       H  0.81318057  0.47456280  0.85507185     0.11700
H1609       H  0.79030259  0.46935490  0.82359811     0.11800
H1610       H  0.77830301  0.45444257  0.83490184     0.10600
C1611       C  0.74078818  0.41285094  0.90399924    -0.03200
C1612       C  0.75229033  0.41696995  0.90759134    -0.09000
C1613       C  0.75341387  0.42636031  0.91608687    -0.16600
C1614       C  0.74305358  0.43167879  0.92114313     0.25500
C1615       C  0.73156364  0.42747095  0.91774566    -0.18300
C1616       C  0.73043479  0.41811163  0.90921211    -0.07200
C1617       C  0.74420062  0.44149247  0.92974906    -0.13600
C1618       C  0.74503040  0.44969587  0.93698827    -0.13400
C1619       C  0.74576047  0.45935682  0.94581172     0.25400
C1620       C  0.73527871  0.46330577  0.95176187    -0.18800
C1621       C  0.73596646  0.47241072  0.96060118    -0.07200
C1622       C  0.74717557  0.47769317  0.96364240    -0.03300
C1623       C  0.75765168  0.47378924  0.95750097    -0.08600
C1624       C  0.75693725  0.46467747  0.94864029    -0.16300
H1625       H  0.76037168  0.41294734  0.90374358     0.11900
H1626       H  0.76235013  0.42950588  0.91866884     0.11200
H1627       H  0.72348149  0.43149828  0.92160791     0.11100
H1628       H  0.72150170  0.41508438  0.90650978     0.11600
H1629       H  0.72657856  0.45926407  0.94965109     0.11700
H1630       H  0.72773547  0.47520330  0.96516078     0.11700
H1631       H  0.76640760  0.47768152  0.95963011     0.11800
H1632       H  0.76511303  0.46170306  0.94408533     0.10600
C1633       C  0.02083706  0.65542952  0.69028874    -0.03200
C1634       C  0.02390917  0.65937571  0.70205536    -0.09000
C1635       C  0.03183255  0.65259184  0.70923476    -0.16600
C1636       C  0.03678415  0.64178872  0.70476388     0.25500
C1637       C  0.03386692  0.63781998  0.69303558    -0.18300
C1638       C  0.02593047  0.64460290  0.68582074    -0.07200
C1639       C  0.04493993  0.63489280  0.71222853    -0.13600
C1640       C  0.05194478  0.62961267  0.71873645    -0.13400
C1641       C  0.06062733  0.62398208  0.72665215     0.25400
C1642       C  0.07300341  0.62575015  0.72460727    -0.18800
C1643       C  0.08150362  0.62075728  0.73255666    -0.07200
C1644       C  0.07771674  0.61387874  0.74260130    -0.03300
C1645       C  0.06526734  0.61215273  0.74462623    -0.08600
C1646       C  0.05676219  0.61715338  0.73665399    -0.16300
H1647       H  0.02013225  0.66766970  0.70575383     0.11900
H1648       H  0.03407146  0.65575713  0.71828849     0.11200
H1649       H  0.03769409  0.62947875  0.68948724     0.11100
H1650       H  0.02371486  0.64133553  0.67680551     0.11600
H1651       H  0.07607812  0.63108819  0.71693500     0.11700
H1652       H  0.09105023  0.62224855  0.73085882     0.11700
H1653       H  0.06210702  0.60718595  0.75249572     0.11800
H1654       H  0.04719080  0.61585209  0.73838762     0.10600
C1655       C  0.14182896  0.52201009  0.81345228    -0.03200
C1656       C  0.14617926  0.52732278  0.80267884    -0.09000
C1657       C  0.13921002  0.53586135  0.79642520    -0.16600
C1658       C  0.12778916  0.53916535  0.80081071     0.25500
C1659       C  0.12332765  0.53386155  0.81146718    -0.18300
C1660       C  0.13030994  0.52533260  0.81777149    -0.07200
C1661       C  0.12086862  0.54827998  0.79454211    -0.13600
C1662       C  0.11563270  0.55630950  0.78927852    -0.13400
C1663       C  0.11011181  0.56637120  0.78306382     0.25400
C1664       C  0.10984457  0.57781297  0.78860291    -0.18800
C1665       C  0.10517218  0.58780103  0.78234168    -0.07200
C1666       C  0.10065540  0.58644797  0.77048447    -0.03300
C1667       C  0.10087814  0.57491106  0.76499769    -0.08600
C1668       C  0.10555254  0.56491652  0.77127961    -0.16300
H1669       H  0.15501580  0.52495791  0.79912770     0.11900
H1670       H  0.14276742  0.53994922  0.78821209     0.11200
H1671       H  0.11450189  0.53638373  0.81494821     0.11100
H1672       H  0.12670852  0.52135535  0.82601100     0.11600
H1673       H  0.11342144  0.57905124  0.79769088     0.11700
H1674       H  0.10515372  0.59661344  0.78672665     0.11700
H1675       H  0.09780407  0.57368054  0.75573969     0.11800
H1676       H  0.10584531  0.55612321  0.76685754     0.10600
C1677       C  0.02007211  0.52273926  0.74686712    -0.03200
C1678       C  0.02387337  0.52788764  0.75792579    -0.09000
C1679       C  0.03222736  0.53742228  0.75802903    -0.16600
C1680       C  0.03688712  0.54193590  0.74710312     0.25500
C1681       C  0.03323784  0.53681505  0.73605016    -0.18300
C1682       C  0.02488296  0.52726355  0.73592269    -0.07200
C1683       C  0.04539059  0.55183198  0.74732529    -0.13600
C1684       C  0.05252204  0.56007603  0.74818946    -0.13400
C1685       C  0.06106912  0.56975524  0.75007613     0.25400
C1686       C  0.06715920  0.57498508  0.74021638    -0.18800
C1687       C  0.07562424  0.58423413  0.74219453    -0.07200
C1688       C  0.07805838  0.58830401  0.75404530    -0.03300
C1689       C  0.07188828  0.58306307  0.76387293    -0.08600
C1690       C  0.06343021  0.57383824  0.76189477    -0.16300
H1691       H  0.02032814  0.52461219  0.76649326     0.11900
H1692       H  0.03501120  0.54131644  0.76663508     0.11200
H1693       H  0.03680119  0.54023488  0.72754116     0.11100
H1694       H  0.02211263  0.52349968  0.72726113     0.11600
H1695       H  0.06541317  0.57187836  0.73103717     0.11700
H1696       H  0.08035898  0.58817030  0.73453512     0.11700
H1697       H  0.07362710  0.58616695  0.77304680     0.11800
H1698       H  0.05876237  0.56985738  0.76958338     0.10600
C1699       C  0.02255690  0.34793120  0.68343938    -0.03200
C1700       C  0.02786385  0.34222942  0.69356261    -0.09000
C1701       C  0.03657242  0.34824630  0.70049510    -0.16600
C1702       C  0.04010081  0.36005147  0.69745386     0.25500
C1703       C  0.03498453  0.36579669  0.68732311    -0.18300
C1704       C  0.02626412  0.35975199  0.68031423    -0.07200
C1705       C  0.04877204  0.36620849  0.70500799    -0.13600
C1706       C  0.05586574  0.37047675  0.71214983    -0.13400
C1707       C  0.06413796  0.37461252  0.72135128     0.25400
C1708       C  0.06800356  0.38671644  0.72159135    -0.18800
C1709       C  0.07605747  0.39062982  0.73058738    -0.07200
C1710       C  0.08022624  0.38248623  0.73949502    -0.03300
C1711       C  0.07634286  0.37034404  0.73914544    -0.08600
C1712       C  0.06831188  0.36644411  0.73014834    -0.16300
H1713       H  0.02526474  0.33310765  0.69616389     0.11900
H1714       H  0.04048720  0.34371601  0.70830719     0.11200
H1715       H  0.03766205  0.37494951  0.68490308     0.11100
H1716       H  0.02234316  0.36435191  0.67255802     0.11600
H1717       H  0.06488566  0.39308856  0.71477340     0.11700
H1718       H  0.07923597  0.39992670  0.73038846     0.11700
H1719       H  0.07952243  0.36388314  0.74584628     0.11800
H1720       H  0.06538419  0.35704783  0.73002915     0.10600
C1721       C  0.10461867  0.40768304  0.76812993    -0.03200
C1722       C  0.09713835  0.41360408  0.77659198    -0.09000
C1723       C  0.10161604  0.42336027  0.78339199    -0.16600
C1724       C  0.11360409  0.42719269  0.78181812     0.25500
C1725       C  0.12110243  0.42125850  0.77347407    -0.18300
C1726       C  0.11665149  0.41152530  0.76669846    -0.07200
C1727       C  0.11842672  0.43701704  0.78889508    -0.13600
C1728       C  0.12336496  0.44493260  0.79458228    -0.13400
C1729       C  0.13013629  0.45397345  0.80107447     0.25400
C1730       C  0.14127700  0.45791843  0.79649332    -0.18800
C1731       C  0.14806205  0.46652262  0.80286412    -0.07200
C1732       C  0.14377494  0.47126188  0.81392038    -0.03300
C1733       C  0.13257366  0.46722136  0.81847545    -0.08600
C1734       C  0.12579082  0.45862030  0.81207047    -0.16300
H1735       H  0.08790285  0.41062228  0.77800906     0.11900
H1736       H  0.09577761  0.42784932  0.78990749     0.11200
H1737       H  0.13040541  0.42413702  0.77223198     0.11100
H1738       H  0.12256433  0.40707127  0.76022925     0.11600
H1739       H  0.14472810  0.45432687  0.78800215     0.11700
H1740       H  0.15663801  0.46948080  0.79912184     0.11700
H1741       H  0.12902058  0.47075626  0.82693942     0.11800
H1742       H  0.11718611  0.45558500  0.81569660     0.10600
C1743       C  0.01965989  0.47024859  0.74937790    -0.03200
C1744       C  0.02522151  0.46529282  0.73900008    -0.09000
C1745       C  0.03382014  0.45601811  0.74011811    -0.16600
C1746       C  0.03697027  0.45154407  0.75160288     0.25500
C1747       C  0.03145917  0.45639301  0.76198402    -0.18300
C1748       C  0.02286905  0.46568158  0.76089017    -0.07200
C1749       C  0.04589791  0.44203659  0.75269287    -0.13600
C1750       C  0.05346399  0.43413805  0.75330660    -0.13400
C1751       C  0.06260940  0.42478965  0.75369432     0.25400
C1752       C  0.05945869  0.41281299  0.75662007    -0.18800
C1753       C  0.06832463  0.40373345  0.75682759    -0.07200
C1754       C  0.08043218  0.40653296  0.75410346    -0.03300
C1755       C  0.08352883  0.41854069  0.75111442    -0.08600
C1756       C  0.07467174  0.42762241  0.75094943    -0.16300
H1757       H  0.02294382  0.46859254  0.73001682     0.11900
H1758       H  0.03802265  0.45234182  0.73201610     0.11200
H1759       H  0.03380897  0.45300905  0.77092385     0.11100
H1760       H  0.01872994  0.46927238  0.76905695     0.11600
H1761       H  0.05015964  0.41049611  0.75873363     0.11700
H1762       H  0.06579312  0.39452786  0.75918055     0.11700
H1763       H  0.09279572  0.42083947  0.74887680     0.11800
H1764       H  0.07721837  0.43683794  0.74862662     0.10600
C1765       C  0.90682107  0.60837651  0.72467780    -0.03200
C1766       C  0.90448773  0.61381449  0.71337458    -0.09000
C1767       C  0.91389248  0.61905241  0.70672556    -0.16600
C1768       C  0.92569095  0.61893146  0.71134610     0.25500
C1769       C  0.92812151  0.61338657  0.72251665    -0.18300
C1770       C  0.91872080  0.60817063  0.72918893    -0.07200
C1771       C  0.93514842  0.62522221  0.70505173    -0.13600
C1772       C  0.94298204  0.63110201  0.70028080    -0.13400
C1773       C  0.95222092  0.63861630  0.69509839     0.25400
C1774       C  0.95846086  0.63477836  0.68473869    -0.18800
C1775       C  0.96746550  0.64212760  0.67973168    -0.07200
C1776       C  0.97031950  0.65338693  0.68506971    -0.03300
C1777       C  0.96399887  0.65716023  0.69548936    -0.08600
C1778       C  0.95498155  0.64980443  0.70046319    -0.16300
H1779       H  0.89536221  0.61413611  0.70977400     0.11900
H1780       H  0.91192574  0.62341572  0.69812374     0.11200
H1781       H  0.93721650  0.61339728  0.72622129     0.11100
H1782       H  0.92069531  0.60438628  0.73804455     0.11600
H1783       H  0.95637343  0.62611854  0.68054347     0.11700
H1784       H  0.97221060  0.63898070  0.67171502     0.11700
H1785       H  0.96600437  0.66578766  0.69977865     0.11800
H1786       H  0.95017169  0.65283221  0.70849416     0.10600
C1787       C  0.88160675  0.58373838  0.75308611    -0.03200
C1788       C  0.88301386  0.57142833  0.75001008    -0.09000
C1789       C  0.87822542  0.56238192  0.75750024    -0.16600
C1790       C  0.87189761  0.56556992  0.76804583     0.25500
C1791       C  0.87046429  0.57780190  0.77115957    -0.18300
C1792       C  0.87527796  0.58684317  0.76371183    -0.07200
C1793       C  0.86634957  0.55636008  0.77538531    -0.13600
C1794       C  0.86110037  0.54890131  0.78138275    -0.13400
C1795       C  0.85422717  0.54024517  0.78825750     0.25400
C1796       C  0.85774468  0.53717349  0.80007662    -0.18800
C1797       C  0.85092992  0.52883065  0.80676870    -0.07200
C1798       C  0.84050778  0.52350228  0.80169178    -0.03300
C1799       C  0.83703016  0.52669680  0.78982261    -0.08600
C1800       C  0.84386275  0.53501614  0.78315238    -0.16300
H1801       H  0.88749525  0.56880093  0.74167016     0.11900
H1802       H  0.87924308  0.55292895  0.75494525     0.11200
H1803       H  0.86549494  0.58035200  0.77925783     0.11100
H1804       H  0.87401458  0.59627593  0.76621717     0.11600
H1805       H  0.86574086  0.54121917  0.80411057     0.11700
H1806       H  0.85382674  0.52653679  0.81588629     0.11700
H1807       H  0.82906893  0.52272324  0.78566371     0.11800
H1808       H  0.84105979  0.53737406  0.77401387     0.10600
C1809       C  0.90616663  0.58457465  0.73948397    -0.03200
C1810       C  0.91107024  0.58107261  0.75072894    -0.09000
C1811       C  0.92029037  0.57236166  0.75125869    -0.16600
C1812       C  0.92471389  0.56707680  0.74055237     0.25500
C1813       C  0.91986471  0.57056315  0.72931772    -0.18300
C1814       C  0.91064507  0.57926134  0.72878538    -0.07200
C1815       C  0.93416603  0.55803997  0.74108217    -0.13600
C1816       C  0.94200593  0.55039957  0.74153687    -0.13400
C1817       C  0.95126090  0.54117055  0.74225679     0.25400
C1818       C  0.95663809  0.53660686  0.73166521    -0.18800
C1819       C  0.96550559  0.52753345  0.73239938    -0.07200
C1820       C  0.96911468  0.52290999  0.74375801    -0.03300
C1821       C  0.96369716  0.52760263  0.75434452    -0.08600
C1822       C  0.95483740  0.53665094  0.75358751    -0.16300
H1823       H  0.90777815  0.58514049  0.75905548     0.11900
H1824       H  0.92396768  0.56975310  0.76000595     0.11200
H1825       H  0.92319034  0.56653855  0.72097532     0.11100
H1826       H  0.90693123  0.58182544  0.72004824     0.11600
H1827       H  0.95395178  0.54003285  0.72283848     0.11700
H1828       H  0.96951742  0.52413204  0.72408913     0.11700
H1829       H  0.96627089  0.52425127  0.76322781     0.11800
H1830       H  0.95075041  0.54009787  0.76184935     0.10600
C1831       C  0.90608169  0.38502617  0.72799402    -0.03200
C1832       C  0.91833542  0.38508191  0.73144445    -0.09000
C1833       C  0.92717197  0.38033982  0.72368857    -0.16600
C1834       C  0.92387352  0.37538799  0.71244429     0.25500
C1835       C  0.91168905  0.37530609  0.70892290    -0.18300
C1836       C  0.90283636  0.38007027  0.71666997    -0.07200
C1837       C  0.93297400  0.36994359  0.70482362    -0.13600
C1838       C  0.94091928  0.36509433  0.69908095    -0.13400
C1839       C  0.95072272  0.35902065  0.69296328     0.25400
C1840       C  0.95537273  0.36365011  0.68207963    -0.18800
C1841       C  0.96507350  0.35783539  0.67633080    -0.07200
C1842       C  0.97023835  0.34730869  0.68141396    -0.03300
C1843       C  0.96548397  0.34272131  0.69234049    -0.08600
C1844       C  0.95579666  0.34854935  0.69806816    -0.16300
H1845       H  0.92106083  0.38848411  0.74025893     0.11900
H1846       H  0.93656023  0.38033029  0.72656199     0.11200
H1847       H  0.90901842  0.37143412  0.70027246     0.11100
H1848       H  0.89344250  0.37986210  0.71383909     0.11600
H1849       H  0.95152880  0.37176235  0.67805817     0.11700
H1850       H  0.96850892  0.36156336  0.66790474     0.11700
H1851       H  0.96923954  0.33462345  0.69646220     0.11800
H1852       H  0.95228276  0.34490351  0.70650420     0.10600
C1853       C  0.88308703  0.40972188  0.75854241    -0.03200
C1854       C  0.88472045  0.42202110  0.75549029    -0.09000
C1855       C  0.88014152  0.43119581  0.76300558    -0.16600
C1856       C  0.87377202  0.42820446  0.77359167     0.25500
C1857       C  0.87224179  0.41599073  0.77677007    -0.18300
C1858       C  0.87685607  0.40681406  0.76929587    -0.07200
C1859       C  0.86812435  0.43759980  0.78075079    -0.13600
C1860       C  0.86274648  0.44535403  0.78632631    -0.13400
C1861       C  0.85565173  0.45449228  0.79244540     0.25400
C1862       C  0.86037072  0.46080834  0.80243722    -0.18800
C1863       C  0.85340665  0.46970146  0.80827864    -0.07200
C1864       C  0.84165346  0.47241799  0.80414239    -0.03300
C1865       C  0.83700103  0.46601036  0.79410842    -0.08600
C1866       C  0.84394260  0.45709985  0.78833284    -0.16300
H1867       H  0.88910656  0.42456893  0.74708236     0.11900
H1868       H  0.88126440  0.44061260  0.76037344     0.11200
H1869       H  0.86726210  0.41355124  0.78489235     0.11100
H1870       H  0.87541398  0.39741888  0.77183050     0.11600
H1871       H  0.86942679  0.45887704  0.80569741     0.11700
H1872       H  0.85724764  0.47451213  0.81595467     0.11700
H1873       H  0.82797532  0.46786254  0.79072963     0.11800
H1874       H  0.84018171  0.45226266  0.78062579     0.10600
C1875       C  0.90689314  0.40831976  0.74365903    -0.03200
C1876       C  0.91254066  0.41140051  0.75466763    -0.09000
C1877       C  0.92175550  0.42010345  0.75489513    -0.16600
C1878       C  0.92540329  0.42578238  0.74411654     0.25500
C1879       C  0.91989272  0.42264025  0.73309098    -0.18300
C1880       C  0.91067400  0.41394516  0.73286137    -0.07200
C1881       C  0.93460421  0.43502112  0.74440766    -0.13600
C1882       C  0.94215276  0.44292165  0.74467559    -0.13400
C1883       C  0.95106847  0.45243757  0.74499618     0.25400
C1884       C  0.95600702  0.45686333  0.73416272    -0.18800
C1885       C  0.96473604  0.46605230  0.73446074    -0.07200
C1886       C  0.96862964  0.47093229  0.74562036    -0.03300
C1887       C  0.96354808  0.46648887  0.75646060    -0.08600
C1888       C  0.95482132  0.45728981  0.75613788    -0.16300
H1889       H  0.90976120  0.40707613  0.76304926     0.11900
H1890       H  0.92596972  0.42246515  0.76347088     0.11200
H1891       H  0.92263995  0.42699124  0.72470318     0.11100
H1892       H  0.90636267  0.41168990  0.72431456     0.11600
H1893       H  0.95314090  0.45318537  0.72548891     0.11700
H1894       H  0.96846868  0.46929515  0.72596125     0.11700
H1895       H  0.96636127  0.47006784  0.76518577     0.11800
H1896       H  0.95103112  0.45393690  0.76457515     0.10600
C1897       C  0.30796500  0.64976130  0.01930514    -0.03200
C1898       C  0.29682045  0.65453617  0.02324239    -0.09000
C1899       C  0.28944824  0.64788234  0.03113100    -0.16600
C1900       C  0.29311645  0.63639262  0.03513313     0.25500
C1901       C  0.30419404  0.63159092  0.03129049    -0.18300
C1902       C  0.31158264  0.63822536  0.02342426    -0.07200
C1903       C  0.28571998  0.62967918  0.04349303    -0.13600
C1904       C  0.27989853  0.62431073  0.05101294    -0.13400
C1905       C  0.27342039  0.61851467  0.06071428     0.25400
C1906       C  0.27757079  0.61983814  0.07265156    -0.18800
C1907       C  0.27104247  0.61480416  0.08225549    -0.07200
C1908       C  0.26032991  0.60831666  0.08001465    -0.03300
C1909       C  0.25626067  0.60689280  0.06799195    -0.08600
C1910       C  0.26280749  0.61195707  0.05837075    -0.16300
H1911       H  0.29378125  0.66337781  0.02019449     0.11900
H1912       H  0.28090908  0.65169998  0.03411979     0.11200
H1913       H  0.30713269  0.62272748  0.03439403     0.11100
H1914       H  0.32008571  0.63428795  0.02050959     0.11600
H1915       H  0.28575920  0.62492587  0.07455139     0.11700
H1916       H  0.27430047  0.61605208  0.09145897     0.11700
H1917       H  0.24785629  0.60220602  0.06606970     0.11800
H1918       H  0.25947999  0.61096327  0.04915817     0.10600
C1919       C  0.23370837  0.58308247  0.10663000    -0.03200
C1920       C  0.23791208  0.57103571  0.10638912    -0.09000
C1921       C  0.23120069  0.56179749  0.11191384    -0.16600
C1922       C  0.22031472  0.56454705  0.11781761     0.25500
C1923       C  0.21604937  0.57649922  0.11803244    -0.18300
C1924       C  0.22271291  0.58571932  0.11248403    -0.07200
C1925       C  0.21369682  0.55522403  0.12403844    -0.13600
C1926       C  0.20809396  0.54765387  0.12955469    -0.13400
C1927       C  0.20137927  0.53874271  0.13625542     0.25400
C1928       C  0.18964575  0.53563550  0.13261303    -0.18800
C1929       C  0.18316729  0.52681971  0.13900352    -0.07200
C1930       C  0.18836241  0.52104900  0.14914028    -0.03300
C1931       C  0.20010373  0.52435042  0.15283441    -0.08600
C1932       C  0.20658082  0.53314164  0.14640092    -0.16300
H1933       H  0.24652972  0.56880869  0.10227609     0.11900
H1934       H  0.23461399  0.55257009  0.11179501     0.11200
H1935       H  0.20765277  0.57871552  0.12261964     0.11100
H1936       H  0.21931864  0.59494402  0.11283186     0.11600
H1937       H  0.18553644  0.53997137  0.12479395     0.11700
H1938       H  0.17412260  0.52449226  0.13598586     0.11700
H1939       H  0.20433152  0.52004762  0.16060116     0.11800
H1940       H  0.21565785  0.53552175  0.14929548     0.10600
C1941       C  0.24814684  0.58321319  0.08237560    -0.03200
C1942       C  0.23757987  0.57806105  0.07748773    -0.09000
C1943       C  0.23835010  0.56877865  0.06883213    -0.16600
C1944       C  0.24968771  0.56457055  0.06496417     0.25500
C1945       C  0.26025433  0.56962344  0.06987146    -0.18300
C1946       C  0.25948774  0.57888690  0.07854138    -0.07200
C1947       C  0.25045290  0.55524220  0.05580113    -0.13600
C1948       C  0.25082508  0.54759093  0.04794972    -0.13400
C1949       C  0.25083154  0.53862383  0.03840100     0.25400
C1950       C  0.26175161  0.53462503  0.03331931    -0.18800
C1951       C  0.26168141  0.52604254  0.02392439    -0.07200
C1952       C  0.25066886  0.52135412  0.01949531    -0.03300
C1953       C  0.23975305  0.52541264  0.02468420    -0.08600
C1954       C  0.23984685  0.53398710  0.03406324    -0.16300
H1955       H  0.22877042  0.58134383  0.08028573     0.11900
H1956       H  0.23011316  0.56495690  0.06508119     0.11200
H1957       H  0.26907398  0.56645072  0.06695333     0.11100
H1958       H  0.26772058  0.58272257  0.08226744     0.11600
H1959       H  0.27031192  0.53815908  0.03659333     0.11700
H1960       H  0.27023580  0.52308568  0.02013120     0.11700
H1961       H  0.23113079  0.52197467  0.02148921     0.11800
H1962       H  0.23133953  0.53702510  0.03791399     0.10600
C1963       C  0.31710408  0.35272744  0.01779237    -0.03200
C1964       C  0.32199322  0.36359995  0.02240228    -0.09000
C1965       C  0.31603730  0.36992414  0.03166912    -0.16600
C1966       C  0.30513504  0.36546619  0.03637299     0.25500
C1967       C  0.30013572  0.35475756  0.03171510    -0.18300
C1968       C  0.30607613  0.34841417  0.02249522    -0.07200
C1969       C  0.29909375  0.37167243  0.04612233    -0.13600
C1970       C  0.29348411  0.37617374  0.05435142    -0.13400
C1971       C  0.28612825  0.38077722  0.06407808     0.25400
C1972       C  0.27420930  0.38439011  0.06172372    -0.18800
C1973       C  0.26678594  0.38826817  0.07122681    -0.07200
C1974       C  0.27123217  0.38860001  0.08317947    -0.03300
C1975       C  0.28318020  0.38492403  0.08550842    -0.08600
C1976       C  0.29062288  0.38107839  0.07597672    -0.16300
H1977       H  0.33049291  0.36711452  0.01897883     0.11900
H1978       H  0.31997861  0.37820903  0.03522970     0.11200
H1979       H  0.29169264  0.35124363  0.03529563     0.11100
H1980       H  0.30208328  0.34007964  0.01912479     0.11600
H1981       H  0.27060228  0.38404397  0.05256918     0.11700
H1982       H  0.25751114  0.39079585  0.06927780     0.11700
H1983       H  0.28673658  0.38507059  0.09468301     0.11800
H1984       H  0.29981117  0.37820840  0.07789807     0.10600
C1985       C  0.18920738  0.46985822  0.14785268    -0.03200
C1986       C  0.20013870  0.46529700  0.15257195    -0.09000
C1987       C  0.20696292  0.45690763  0.14595816    -0.16600
C1988       C  0.20297140  0.45296419  0.13455183     0.25500
C1989       C  0.19208531  0.45740830  0.12978537    -0.18300
C1990       C  0.18523036  0.46581293  0.13639437    -0.07200
C1991       C  0.21010590  0.44436248  0.12780685    -0.13600
C1992       C  0.21645493  0.43710811  0.12264384    -0.13400
C1993       C  0.22441209  0.42834915  0.11714574     0.25400
C1994       C  0.22157889  0.41596897  0.11766363    -0.18800
C1995       C  0.22967176  0.40737973  0.11303495    -0.07200
C1996       C  0.24064722  0.41108988  0.10776159    -0.03300
C1997       C  0.24338882  0.42353883  0.10716448    -0.08600
C1998       C  0.23529461  0.43212405  0.11182233    -0.16300
H1999       H  0.20344706  0.46823834  0.16136087     0.11900
H2000       H  0.21537250  0.45351498  0.14973329     0.11200
H2001       H  0.18891384  0.45440231  0.12096302     0.11100
H2002       H  0.17685932  0.46917296  0.13252278     0.11600
H2003       H  0.21321276  0.41294558  0.12182293     0.11700
H2004       H  0.22740175  0.39782524  0.11362786     0.11700
H2005       H  0.25192440  0.42660705  0.10343127     0.11800
H2006       H  0.23763102  0.44167949  0.11149238     0.10600
C2007       C  0.25546123  0.41145446  0.08383204    -0.03200
C2008       C  0.24434413  0.41450162  0.07844298    -0.09000
C2009       C  0.24391392  0.42293536  0.06894939    -0.16600
C2010       C  0.25459369  0.42837454  0.06475157     0.25500
C2011       C  0.26568697  0.42543963  0.07016448    -0.18300
C2012       C  0.26611616  0.41704247  0.07967070    -0.07200
C2013       C  0.25419171  0.43692834  0.05487109    -0.13600
C2014       C  0.25384806  0.44413511  0.04662947    -0.13400
C2015       C  0.25327243  0.45285753  0.03690463     0.25400
C2016       C  0.26385214  0.45652309  0.03093029    -0.18800
C2017       C  0.26328324  0.46518830  0.02164772    -0.07200
C2018       C  0.25210084  0.47025882  0.01820949    -0.03300
C2019       C  0.24151312  0.46643538  0.02420066    -0.08600
C2020       C  0.24211002  0.45781064  0.03349728    -0.16300
H2021       H  0.23606472  0.41019416  0.08146958     0.11900
H2022       H  0.23528004  0.42513961  0.06482218     0.11200
H2023       H  0.27400138  0.42960282  0.06700709     0.11100
H2024       H  0.27475504  0.41482157  0.08376145     0.11600
H2025       H  0.27254373  0.45274297  0.03349590     0.11700
H2026       H  0.27158568  0.46794734  0.01720021     0.11700
H2027       H  0.23277732  0.47020469  0.02179683     0.11800
H2028       H  0.23386896  0.45505385  0.03807265     0.10600
C2029       C  0.25791716  0.61214219  0.90919634    -0.03200
C2030       C  0.25702435  0.62407262  0.91358818    -0.09000
C2031       C  0.26491224  0.62817141  0.92260051    -0.16600
C2032       C  0.27381949  0.62041410  0.92723094     0.25500
C2033       C  0.27478577  0.60850292  0.92290072    -0.18300
C2034       C  0.26688021  0.60438256  0.91387968    -0.07200
C2035       C  0.28209880  0.62489493  0.93620549    -0.13600
C2036       C  0.28866659  0.62958716  0.94354850    -0.13400
C2037       C  0.29587625  0.63619851  0.95212875     0.25400
C2038       C  0.30615706  0.63090374  0.95732901    -0.18800
C2039       C  0.31304365  0.63742949  0.96575889    -0.07200
C2040       C  0.30967210  0.64930418  0.96906318    -0.03300
C2041       C  0.29937012  0.65455790  0.96370896    -0.08600
C2042       C  0.29252841  0.64803532  0.95528280    -0.16300
H2043       H  0.25020289  0.63019860  0.91005623     0.11900
H2044       H  0.26413272  0.63741998  0.92588884     0.11200
H2045       H  0.28172237  0.60247263  0.92637836     0.11100
H2046       H  0.26793723  0.59524732  0.91039390     0.11600
H2047       H  0.30881046  0.62173922  0.95491462     0.11700
H2048       H  0.32091769  0.63314999  0.96976922     0.11700
H2049       H  0.29655702  0.66368226  0.96607342     0.11800
H2050       H  0.28458775  0.65220379  0.95126734     0.10600
C2051       C  0.18035382  0.52439896  0.84799660    -0.03200
C2052       C  0.17703526  0.52823025  0.85972984    -0.09000
C2053       C  0.18362150  0.53734260  0.86561978    -0.16600
C2054       C  0.19354078  0.54271523  0.85982512     0.25500
C2055       C  0.19681052  0.53905525  0.84810931    -0.18300
C2056       C  0.19026874  0.52994699  0.84222115    -0.07200
C2057       C  0.20051322  0.55189951  0.86586778    -0.13600
C2058       C  0.20682003  0.55959858  0.87035174    -0.13400
C2059       C  0.21473717  0.56884041  0.87496172     0.25400
C2060       C  0.22291659  0.57452503  0.86710432    -0.18800
C2061       C  0.23057714  0.58361830  0.87145797    -0.07200
C2062       C  0.23017517  0.58707048  0.88373488    -0.03300
C2063       C  0.22187641  0.58137839  0.89156437    -0.08600
C2064       C  0.21423291  0.57224900  0.88719971    -0.16300
H2065       H  0.16943526  0.52411715  0.86438956     0.11900
H2066       H  0.18102955  0.54014106  0.87469522     0.11200
H2067       H  0.20447006  0.54319187  0.84355337     0.11100
H2068       H  0.19301019  0.52721477  0.83317546     0.11600
H2069       H  0.22334463  0.57195218  0.85760706     0.11700
H2070       H  0.23686367  0.58792271  0.86525257     0.11700
H2071       H  0.22112029  0.58413648  0.90097350     0.11800
H2072       H  0.20786132  0.56794548  0.89332314     0.10600
C2073       C  0.24432781  0.58781284  0.90795788    -0.03200
C2074       C  0.24810751  0.57603299  0.90489236    -0.09000
C2075       C  0.24851485  0.56693572  0.91374230    -0.16600
C2076       C  0.24513300  0.56952499  0.92573430     0.25500
C2077       C  0.24133196  0.58126432  0.92883831    -0.18300
C2078       C  0.24094058  0.59037230  0.91998918    -0.07200
C2079       C  0.24560867  0.56012682  0.93482140    -0.13600
C2080       C  0.24612083  0.55209474  0.94225672    -0.13400
C2081       C  0.24684570  0.54235665  0.95096250     0.25400
C2082       C  0.23642312  0.53841516  0.95702657    -0.18800
C2083       C  0.23711482  0.52889304  0.96540829    -0.07200
C2084       C  0.24826965  0.52322269  0.96787067    -0.03300
C2085       C  0.25869698  0.52724729  0.96173784    -0.08600
C2086       C  0.25797281  0.53673582  0.95331891    -0.16300
H2087       H  0.25081668  0.57395209  0.89566901     0.11900
H2088       H  0.25148922  0.55789447  0.91124312     0.11200
H2089       H  0.23868715  0.58337283  0.93808172     0.11100
H2090       H  0.23796729  0.59941173  0.92247056     0.11600
H2091       H  0.22776159  0.54269504  0.95527283     0.11700
H2092       H  0.22893661  0.52602692  0.97001768     0.11700
H2093       H  0.26740358  0.52304507  0.96342142     0.11800
H2094       H  0.26609312  0.53969201  0.94865307     0.10600
C2095       C  0.26293060  0.38313272  0.90456277    -0.03200
C2096       C  0.27169424  0.39037444  0.91035291    -0.09000
C2097       C  0.27924757  0.38539393  0.91926758    -0.16600
C2098       C  0.27821114  0.37310742  0.92239700     0.25500
C2099       C  0.26955831  0.36583061  0.91661797    -0.18300
C2100       C  0.26198876  0.37079963  0.90773941    -0.07200
C2101       C  0.28609747  0.36790571  0.93142280    -0.13600
C2102       C  0.29263073  0.36340403  0.93896210    -0.13400
C2103       C  0.30028891  0.35794881  0.94803460     0.25400
C2104       C  0.29664229  0.34725946  0.95385357    -0.18800
C2105       C  0.30394836  0.34205962  0.96282684    -0.07200
C2106       C  0.31501043  0.34750448  0.96611278    -0.03300
C2107       C  0.31865558  0.35819092  0.96014415    -0.08600
C2108       C  0.31133107  0.36337192  0.95115689    -0.16300
H2109       H  0.27288570  0.39979745  0.90782786     0.11900
H2110       H  0.28597801  0.39108904  0.92362273     0.11200
H2111       H  0.26869210  0.35630535  0.91894006     0.11100
H2112       H  0.25535337  0.36500999  0.90337090     0.11600
H2113       H  0.28811725  0.34297960  0.95150543     0.11700
H2114       H  0.30088655  0.33383074  0.96725470     0.11700
H2115       H  0.32712226  0.36258413  0.96246749     0.11800
H2116       H  0.31424444  0.37164318  0.94669766     0.10600
C2117       C  0.18311747  0.47300560  0.84856131    -0.03200
C2118       C  0.17879574  0.46643465  0.85862705    -0.09000
C2119       C  0.18609382  0.45764475  0.86420182    -0.16600
C2120       C  0.19779858  0.45540770  0.85983246     0.25500
C2121       C  0.20222730  0.46207793  0.84997779    -0.18300
C2122       C  0.19494665  0.47079673  0.84436575    -0.07200
C2123       C  0.20521165  0.44605381  0.86514488    -0.13600
C2124       C  0.21174657  0.43813340  0.86892543    -0.13400
C2125       C  0.21980360  0.42861738  0.87281413     0.25400
C2126       C  0.22827864  0.42380991  0.86466060    -0.18800
C2127       C  0.23605936  0.41449442  0.86833937    -0.07200
C2128       C  0.23552487  0.40996495  0.88025251    -0.03300
C2129       C  0.22693458  0.41475889  0.88836661    -0.08600
C2130       C  0.21913904  0.42406364  0.88467017    -0.16300
H2131       H  0.16972704  0.46794393  0.86205239     0.11900
H2132       H  0.18257067  0.45251806  0.87182173     0.11200
H2133       H  0.21127294  0.46043749  0.84653161     0.11100
H2134       H  0.19856492  0.47576698  0.83669174     0.11600
H2135       H  0.22884739  0.42723894  0.85545056     0.11700
H2136       H  0.24255736  0.41087471  0.86191675     0.11700
H2137       H  0.22612187  0.41118594  0.89749230     0.11800
H2138       H  0.21255219  0.42764714  0.89102586     0.10600
C2139       C  0.25012404  0.40834002  0.90399869    -0.03200
C2140       C  0.25338899  0.42030311  0.90100012    -0.09000
C2141       C  0.25340013  0.42938939  0.90987979    -0.16600
C2142       C  0.25019636  0.42660513  0.92186896     0.25500
C2143       C  0.24705887  0.41466029  0.92494608    -0.18300
C2144       C  0.24699960  0.40557134  0.91604890    -0.07200
C2145       C  0.25004973  0.43601809  0.93097652    -0.13600
C2146       C  0.24993784  0.44390090  0.93860466    -0.13400
C2147       C  0.24992529  0.45323194  0.94780063     0.25400
C2148       C  0.26089463  0.45766522  0.95238403    -0.18800
C2149       C  0.26092851  0.46657468  0.96145137    -0.07200
C2150       C  0.24996886  0.47116808  0.96608390    -0.03300
C2151       C  0.23897978  0.46671164  0.96137463    -0.08600
C2152       C  0.23896973  0.45780671  0.95228552    -0.16300
H2153       H  0.25586636  0.42257766  0.89175871     0.11900
H2154       H  0.25585919  0.43858542  0.90738804     0.11200
H2155       H  0.24456399  0.41239879  0.93419254     0.11100
H2156       H  0.24437112  0.39641824  0.91849254     0.11600
H2157       H  0.26942960  0.45419625  0.94898657     0.11700
H2158       H  0.26953790  0.46981228  0.96488231     0.11700
H2159       H  0.23039599  0.47007926  0.96473299     0.11800
H2160       H  0.23042074  0.45445112  0.94880033     0.10600
C2161       C  0.61715621  0.25503099  0.08503224    -0.03200
C2162       C  0.61016960  0.26465237  0.08041033    -0.09000
C2163       C  0.61514674  0.27276539  0.07199256    -0.16600
C2164       C  0.62715255  0.27135734  0.06814387     0.25500
C2165       C  0.63411654  0.26173688  0.07264525    -0.18300
C2166       C  0.62917012  0.25365469  0.08107667    -0.07200
C2167       C  0.63245798  0.27983818  0.05973164    -0.13600
C2168       C  0.63739923  0.28661277  0.05269341    -0.13400
C2169       C  0.64379384  0.29416205  0.04415562     0.25400
C2170       C  0.65380710  0.28947665  0.03793548    -0.18800
C2171       C  0.65996894  0.29663405  0.02947299    -0.07200
C2172       C  0.65616204  0.30858658  0.02707464    -0.03300
C2173       C  0.64614551  0.31327486  0.03344050    -0.08600
C2174       C  0.64001660  0.30610190  0.04195264    -0.16300
H2175       H  0.60100711  0.26612626  0.08357266     0.11900
H2176       H  0.60969651  0.28022340  0.06862441     0.11200
H2177       H  0.64341775  0.26056227  0.06973858     0.11100
H2178       H  0.63474630  0.24635444  0.08457261     0.11600
H2179       H  0.65680691  0.28024785  0.03956681     0.11700
H2180       H  0.66760343  0.29274356  0.02467803     0.11700
H2181       H  0.64300489  0.32244545  0.03178683     0.11800
H2182       H  0.63228805  0.30982986  0.04673494     0.10600
C2183       C  0.52028246  0.19009050  0.14713982    -0.03200
C2184       C  0.52479678  0.20132359  0.15123471    -0.09000
C2185       C  0.53415914  0.20713582  0.14498586    -0.16600
C2186       C  0.53912198  0.20182266  0.13456471     0.25500
C2187       C  0.53452642  0.19077334  0.13026687    -0.18300
C2188       C  0.52514681  0.18493738  0.13650467    -0.07200
C2189       C  0.54924868  0.20749856  0.12862301    -0.13600
C2190       C  0.55800954  0.21233180  0.12423539    -0.13400
C2191       C  0.56866245  0.21827199  0.11962896     0.25400
C2192       C  0.57270902  0.21595306  0.10779556    -0.18800
C2193       C  0.58305155  0.22180372  0.10337434    -0.07200
C2194       C  0.58938187  0.23009252  0.11073243    -0.03300
C2195       C  0.58539972  0.23219442  0.12266339    -0.08600
C2196       C  0.57506435  0.22635392  0.12706759    -0.16300
H2197       H  0.52122418  0.20553754  0.15937347     0.11900
H2198       H  0.53765693  0.21568337  0.14839417     0.11200
H2199       H  0.53831531  0.18657936  0.12221034     0.11100
H2200       H  0.52184569  0.17631052  0.13312033     0.11600
H2201       H  0.56788174  0.20963115  0.10200062     0.11700
H2202       H  0.58612643  0.21982738  0.09424415     0.11700
H2203       H  0.59018019  0.23851079  0.12850022     0.11800
H2204       H  0.57204318  0.22816915  0.13625799     0.10600
C2205       C  0.52639634  0.24311083  0.02688234    -0.03200
C2206       C  0.53083226  0.25394910  0.03200286    -0.09000
C2207       C  0.54028670  0.25368952  0.04045679    -0.16600
C2208       C  0.54548996  0.24261674  0.04387847     0.25500
C2209       C  0.54110897  0.23176687  0.03887413    -0.18300
C2210       C  0.53159973  0.23199977  0.03044839    -0.07200
C2211       C  0.55533191  0.24245612  0.05249273    -0.13600
C2212       C  0.56352012  0.24261618  0.05976456    -0.13400
C2213       C  0.57315170  0.24296422  0.06860640     0.25400
C2214       C  0.58482144  0.23905673  0.06548735    -0.18800
C2215       C  0.59407101  0.23912331  0.07418630    -0.07200
C2216       C  0.59172771  0.24307855  0.08608718    -0.03300
C2217       C  0.58008062  0.24722770  0.08908966    -0.08600
C2218       C  0.57083598  0.24713624  0.08040512    -0.16300
H2219       H  0.52700754  0.26264230  0.02946115     0.11900
H2220       H  0.54357880  0.26214103  0.04428313     0.11200
H2221       H  0.54506686  0.22313769  0.04144829     0.11100
H2222       H  0.52842041  0.22351099  0.02662367     0.11600
H2223       H  0.58673047  0.23583221  0.05638444     0.11700
H2224       H  0.60298870  0.23584456  0.07174606     0.11700
H2225       H  0.57814821  0.25038166  0.09820512     0.11800
H2226       H  0.56186293  0.25022339  0.08291786     0.10600
C2227       C  0.38897153  0.27364364  0.08627570    -0.03200
C2228       C  0.38858030  0.26949233  0.07421692    -0.09000
C2229       C  0.38549154  0.27742257  0.06482891    -0.16600
C2230       C  0.38274422  0.28956230  0.06740380     0.25500
C2231       C  0.38313787  0.29377195  0.07940748    -0.18300
C2232       C  0.38619581  0.28582231  0.08882582    -0.07200
C2233       C  0.37865474  0.29737615  0.05780285    -0.13600
C2234       C  0.37422126  0.30303220  0.04956960    -0.13400
C2235       C  0.36768103  0.30854292  0.03973343     0.25400
C2236       C  0.37270988  0.31808673  0.03301199    -0.18800
C2237       C  0.36621255  0.32318285  0.02334610    -0.07200
C2238       C  0.35465862  0.31871413  0.02030516    -0.03300
C2239       C  0.34971754  0.30913849  0.02714308    -0.08600
C2240       C  0.35618289  0.30411371  0.03679075    -0.16300
H2241       H  0.39043779  0.26006947  0.07209161     0.11900
H2242       H  0.38503087  0.27403568  0.05559068     0.11200
H2243       H  0.38090273  0.30312538  0.08149858     0.11100
H2244       H  0.38642875  0.28916192  0.09808424     0.11600
H2245       H  0.38162755  0.32155525  0.03521580     0.11700
H2246       H  0.37023625  0.33054939  0.01822857     0.11700
H2247       H  0.34082547  0.30553874  0.02506553     0.11800
H2248       H  0.35222022  0.29672586  0.04194129     0.10600
C2249       C  0.40942085  0.24155354  0.11060585    -0.03200
C2250       C  0.42191735  0.24383857  0.10991158    -0.09000
C2251       C  0.43020326  0.23520939  0.11405063    -0.16600
C2252       C  0.42607977  0.22426463  0.11900373     0.25500
C2253       C  0.41364412  0.22194208  0.11978113    -0.18300
C2254       C  0.40534003  0.23057141  0.11563147    -0.07200
C2255       C  0.43461143  0.21577226  0.12394042    -0.13600
C2256       C  0.44194233  0.20929202  0.12876574    -0.13400
C2257       C  0.45083946  0.20246757  0.13536118     0.25400
C2258       C  0.45595931  0.19196893  0.13035709    -0.18800
C2259       C  0.46481911  0.18557554  0.13680132    -0.07200
C2260       C  0.46865578  0.18968394  0.14828270    -0.03300
C2261       C  0.46338022  0.20019263  0.15324731    -0.08600
C2262       C  0.45452203  0.20652749  0.14682141    -0.16300
H2263       H  0.42527218  0.25238598  0.10640885     0.11900
H2264       H  0.43981193  0.23715966  0.11358318     0.11200
H2265       H  0.41037494  0.21354113  0.12372015     0.11100
H2266       H  0.39573840  0.22867587  0.11631344     0.11600
H2267       H  0.45316452  0.18877854  0.12147138     0.11700
H2268       H  0.46875117  0.17751989  0.13275608     0.11700
H2269       H  0.46612789  0.20355409  0.16208076     0.11800
H2270       H  0.45060011  0.21464978  0.15075901     0.10600
C2271       C  0.47421483  0.24819805  0.02662006    -0.03200
C2272       C  0.47069618  0.25983372  0.03057494    -0.09000
C2273       C  0.46134151  0.26118610  0.03903565    -0.16600
C2274       C  0.45539201  0.25094239  0.04362979     0.25500
C2275       C  0.45885124  0.23933980  0.03976832    -0.18300
C2276       C  0.46820305  0.23796349  0.03132505    -0.07200
C2277       C  0.44579368  0.25229394  0.05236331    -0.13600
C2278       C  0.43783910  0.25324694  0.05980025    -0.13400
C2279       C  0.42850214  0.25429020  0.06885249     0.25400
C2280       C  0.42199207  0.24399543  0.07249707    -0.18800
C2281       C  0.41306405  0.24498314  0.08144839    -0.07200
C2282       C  0.41059591  0.25627275  0.08684660    -0.03300
C2283       C  0.41712934  0.26656305  0.08313123    -0.08600
C2284       C  0.42603175  0.26557742  0.07416767    -0.16300
H2285       H  0.47514323  0.26788670  0.02710962     0.11900
H2286       H  0.45874375  0.27021160  0.04198015     0.11200
H2287       H  0.45431088  0.23135096  0.04327790     0.11100
H2288       H  0.47068288  0.22889258  0.02843981     0.11600
H2289       H  0.42383632  0.23521718  0.06844355     0.11700
H2290       H  0.40804860  0.23698277  0.08416859     0.11700
H2291       H  0.41537444  0.27531573  0.08726178     0.11800
H2292       H  0.43103143  0.27359249  0.07143537     0.10600
C2293       C  0.61444489  0.25488926  0.91930273    -0.03200
C2294       C  0.62637802  0.25409355  0.92362957    -0.09000
C2295       C  0.63042099  0.26191640  0.93275485    -0.16600
C2296       C  0.62261080  0.27068133  0.93758903     0.25500
C2297       C  0.61062416  0.27138423  0.93350363    -0.18300
C2298       C  0.60654955  0.26352126  0.92438510    -0.07200
C2299       C  0.62719376  0.27930272  0.94625197    -0.13600
C2300       C  0.63204144  0.28631411  0.95310674    -0.13400
C2301       C  0.63898889  0.29405626  0.96097924     0.25400
C2302       C  0.63397876  0.30469739  0.96581725    -0.18800
C2303       C  0.64085415  0.31203323  0.97360433    -0.07200
C2304       C  0.65279722  0.30875752  0.97661143    -0.03300
C2305       C  0.65777307  0.29813897  0.97154534    -0.08600
C2306       C  0.65091165  0.29085600  0.96379043    -0.16300
H2307       H  0.63261977  0.24753854  0.91980117     0.11900
H2308       H  0.63972420  0.26131856  0.93583984     0.11200
H2309       H  0.60453909  0.27819865  0.93713146     0.11100
H2310       H  0.59740219  0.26451653  0.92098569     0.11600
H2311       H  0.62476029  0.30727027  0.96364300     0.11700
H2312       H  0.63679471  0.32015775  0.97737393     0.11700
H2313       H  0.66694829  0.29537940  0.97365937     0.11800
H2314       H  0.65488845  0.28266862  0.96004564     0.10600
C2315       C  0.58996852  0.23010461  0.89031427    -0.03200
C2316       C  0.58651056  0.23254200  0.87828170    -0.09000
C2317       C  0.57716275  0.22594730  0.87285255    -0.16600
C2318       C  0.57122930  0.21680919  0.87937357     0.25500
C2319       C  0.57470959  0.21422354  0.89132465    -0.18300
C2320       C  0.58409084  0.22079672  0.89675802    -0.07200
C2321       C  0.56173411  0.20997108  0.87366323    -0.13600
C2322       C  0.55400496  0.20435502  0.86837821    -0.13400
C2323       C  0.54512081  0.19778742  0.86148074     0.25400
C2324       C  0.54182866  0.20190258  0.84992103    -0.18800
C2325       C  0.53347747  0.19536470  0.84298953    -0.07200
C2326       C  0.52833851  0.18460125  0.84754563    -0.03300
C2327       C  0.53162851  0.18058029  0.85921997    -0.08600
C2328       C  0.53998245  0.18715103  0.86614698    -0.16300
H2329       H  0.59096470  0.23963618  0.87313333     0.11900
H2330       H  0.57457044  0.22796384  0.86357171     0.11200
H2331       H  0.57023933  0.20708276  0.89640009     0.11100
H2332       H  0.58682698  0.21852450  0.90592551     0.11600
H2333       H  0.54578258  0.21012122  0.84623039     0.11700
H2334       H  0.53111005  0.19869417  0.83403964     0.11700
H2335       H  0.52778961  0.17234491  0.86297477     0.11800
H2336       H  0.54249526  0.18389542  0.87509017     0.10600
C2337       C  0.59031054  0.24095879  0.91616191    -0.03200
C2338       C  0.59274664  0.23638165  0.92781672    -0.09000
C2339       C  0.58339181  0.23502409  0.93626939    -0.16600
C2340       C  0.57151821  0.23821515  0.93313405     0.25500
C2341       C  0.56905711  0.24287967  0.92155767    -0.18300
C2342       C  0.57841101  0.24428118  0.91312400    -0.07200
C2343       C  0.56191461  0.23710405  0.94189675    -0.13600
C2344       C  0.55383210  0.23693475  0.94925450    -0.13400
C2345       C  0.54426242  0.23791314  0.95806870     0.25400
C2346       C  0.53989017  0.24941200  0.96122103    -0.18800
C2347       C  0.53080354  0.25059902  0.96995260    -0.07200
C2348       C  0.52592769  0.24027403  0.97565357    -0.03300
C2349       C  0.53027411  0.22871175  0.97235261    -0.08600
C2350       C  0.53941752  0.22754670  0.96361331    -0.16300
H2351       H  0.60186458  0.23373211  0.93027781     0.11900
H2352       H  0.58541055  0.23148276  0.94522816     0.11200
H2353       H  0.55992123  0.24547068  0.91906973     0.11100
H2354       H  0.57639906  0.24791092  0.90420744     0.11600
H2355       H  0.54356673  0.25748895  0.95697337     0.11700
H2356       H  0.52762243  0.25961459  0.97226160     0.11700
H2357       H  0.52669109  0.22059593  0.97659270     0.11800
H2358       H  0.54274158  0.21859590  0.96123744     0.10600
C2359       C  0.39183223  0.25955092  0.91059641    -0.03200
C2360       C  0.39282469  0.25665839  0.92299204    -0.09000
C2361       C  0.38873306  0.26482431  0.93181963    -0.16600
C2362       C  0.38357303  0.27590353  0.92832249     0.25500
C2363       C  0.38263304  0.27885500  0.91599678    -0.18300
C2364       C  0.38670507  0.27070755  0.90717740    -0.07200
C2365       C  0.37859374  0.28396370  0.93728863    -0.13600
C2366       C  0.37368250  0.29055245  0.94449843    -0.13400
C2367       C  0.36705233  0.29806896  0.95283966     0.25400
C2368       C  0.37153024  0.30946643  0.95624949    -0.18800
C2369       C  0.36494015  0.31676907  0.96427661    -0.07200
C2370       C  0.35380254  0.31272015  0.96898069    -0.03300
C2371       C  0.34937647  0.30126621  0.96546269    -0.08600
C2372       C  0.35596084  0.29400450  0.95743094    -0.16300
H2373       H  0.39646287  0.24798239  0.92583506     0.11900
H2374       H  0.38937031  0.26240076  0.94134072     0.11200
H2375       H  0.37857538  0.28736834  0.91319875     0.11100
H2376       H  0.38581086  0.27308599  0.89766888     0.11600
H2377       H  0.38009693  0.31270298  0.95270876     0.11700
H2378       H  0.36858355  0.32553797  0.96684358     0.11700
H2379       H  0.34082758  0.29790735  0.96891882     0.11800
H2380       H  0.35239936  0.28521284  0.95480143     0.10600
C2381       C  0.47731457  0.18361304  0.84381381    -0.03200
C2382       C  0.47249379  0.17913069  0.85476173    -0.09000
C2383       C  0.46338766  0.18549205  0.86084817    -0.16600
C2384       C  0.45896153  0.19639199  0.85607626     0.25500
C2385       C  0.46358464  0.20086192  0.84510823    -0.18300
C2386       C  0.47271963  0.19451589  0.83900235    -0.07200
C2387       C  0.44982450  0.20305925  0.86256618    -0.13600
C2388       C  0.44225208  0.20864262  0.86812591    -0.13400
C2389       C  0.43317465  0.21541366  0.87459077     0.25400
C2390       C  0.43624763  0.22626176  0.88048071    -0.18800
C2391       C  0.42728772  0.23320974  0.88616193    -0.07200
C2392       C  0.41516534  0.22931373  0.88608606    -0.03300
C2393       C  0.41220554  0.21829865  0.88033425    -0.08600
C2394       C  0.42116134  0.21138310  0.87463750    -0.16300
H2395       H  0.47584007  0.17076412  0.85869608     0.11900
H2396       H  0.45986504  0.18195444  0.86932738     0.11200
H2397       H  0.46020114  0.20929254  0.84133143     0.11100
H2398       H  0.47623556  0.19817703  0.83058024     0.11600
H2399       H  0.44551546  0.22949911  0.88042271     0.11700
H2400       H  0.42978286  0.24183435  0.89016356     0.11700
H2401       H  0.40291920  0.21513522  0.88009558     0.11800
H2402       H  0.41868186  0.20301019  0.87008885     0.10600
C2403       C  0.41548385  0.24470314  0.90983033    -0.03200
C2404       C  0.42070787  0.25585584  0.91316917    -0.09000
C2405       C  0.42949981  0.25634227  0.92231453    -0.16600
C2406       C  0.43318177  0.24567674  0.92818647     0.25500
C2407       C  0.42815204  0.23450631  0.92473858    -0.18300
C2408       C  0.41935629  0.23401781  0.91559793    -0.07200
C2409       C  0.44194326  0.24618185  0.93789031    -0.13600
C2410       C  0.44915571  0.24631508  0.94613703    -0.13400
C2411       C  0.45773041  0.24606438  0.95601768     0.25400
C2412       C  0.46044358  0.23505757  0.96177266    -0.18800
C2413       C  0.46891893  0.23470143  0.97121784    -0.07200
C2414       C  0.47480147  0.24537430  0.97504874    -0.03300
C2415       C  0.47192448  0.25642671  0.96930051    -0.08600
C2416       C  0.46345110  0.25675723  0.95984081    -0.16300
H2417       H  0.41786985  0.26416950  0.90875485     0.11900
H2418       H  0.43333678  0.26503274  0.92487928     0.11200
H2419       H  0.43092614  0.22619580  0.92921522     0.11100
H2420       H  0.41537505  0.22536098  0.91317149     0.11600
H2421       H  0.45605788  0.22672738  0.95890774     0.11700
H2422       H  0.47091730  0.22606035  0.97546692     0.11700
H2423       H  0.47629547  0.26480052  0.97203885     0.11800
H2424       H  0.46141695  0.26533462  0.95546848     0.10600
C2425       C  0.65541020  0.01612452  0.68789071    -0.03200
C2426       C  0.64390590  0.01962658  0.68363790    -0.09000
C2427       C  0.63649573  0.02718405  0.69068569    -0.16600
C2428       C  0.64049218  0.03127872  0.70205512     0.25500
C2429       C  0.65189319  0.02778370  0.70635206    -0.18300
C2430       C  0.65930044  0.02026973  0.69933947    -0.07200
C2431       C  0.63320811  0.03940583  0.70924373    -0.13600
C2432       C  0.62825787  0.04668274  0.71576088    -0.13400
C2433       C  0.62386996  0.05592135  0.72391177     0.25400
C2434       C  0.63173748  0.06078007  0.73262185    -0.18800
C2435       C  0.62794191  0.07028926  0.74010269    -0.07200
C2436       C  0.61618676  0.07502913  0.73903568    -0.03300
C2437       C  0.60825100  0.07002145  0.73036900    -0.08600
C2438       C  0.61207680  0.06048841  0.72285508    -0.16300
H2439       H  0.64064730  0.01654092  0.67488060     0.11900
H2440       H  0.62770095  0.02987416  0.68724973     0.11200
H2441       H  0.65509722  0.03093207  0.71511612     0.11100
H2442       H  0.66807719  0.01769918  0.70290151     0.11600
H2443       H  0.64089635  0.05735205  0.73349051     0.11700
H2444       H  0.63422690  0.07401806  0.74668138     0.11700
H2445       H  0.59925122  0.07371203  0.72913757     0.11800
H2446       H  0.60594243  0.05686762  0.71607164     0.10600
C2447       C  0.53159291  0.14751227  0.81090389    -0.03200
C2448       C  0.53604286  0.15132952  0.79955959    -0.09000
C2449       C  0.54501464  0.14463206  0.79360418    -0.16600
C2450       C  0.54967365  0.13406260  0.79890690     0.25500
C2451       C  0.54538667  0.13025170  0.81024585    -0.18300
C2452       C  0.53639420  0.13692326  0.81621131    -0.07200
C2453       C  0.55876036  0.12711271  0.79261266    -0.13600
C2454       C  0.56631648  0.12163665  0.78690664    -0.13400
C2455       C  0.57532787  0.11569094  0.77956363     0.25400
C2456       C  0.57745445  0.10320444  0.78074211    -0.18800
C2457       C  0.58619250  0.09751585  0.77349081    -0.07200
C2458       C  0.59279232  0.10424850  0.76488380    -0.03300
C2459       C  0.59065505  0.11679237  0.76385832    -0.08600
C2460       C  0.58196919  0.12246190  0.77112838    -0.16300
H2461       H  0.53250958  0.15941887  0.79522967     0.11900
H2462       H  0.54827044  0.14766146  0.78482590     0.11200
H2463       H  0.54893639  0.12209139  0.81443955     0.11100
H2464       H  0.53315673  0.13375538  0.82494049     0.11600
H2465       H  0.57242446  0.09788928  0.78731058     0.11700
H2466       H  0.58793127  0.08793457  0.77479794     0.11700
H2467       H  0.59566210  0.12220735  0.75736090     0.11800
H2468       H  0.58042015  0.13213306  0.77015531     0.10600
C2469       C  0.53044205  0.01636283  0.74735187    -0.03200
C2470       C  0.53232662  0.02203401  0.75866354    -0.09000
C2471       C  0.54058093  0.03160990  0.75977834    -0.16600
C2472       C  0.54708916  0.03560103  0.74962745     0.25500
C2473       C  0.54529780  0.02998887  0.73834787    -0.18300
C2474       C  0.53700156  0.02045388  0.73719730    -0.07200
C2475       C  0.55577073  0.04529202  0.75079858    -0.13600
C2476       C  0.56336752  0.05312700  0.75157306    -0.13400
C2477       C  0.57290740  0.06201918  0.75220534     0.25400
C2478       C  0.57095669  0.07390092  0.74808083    -0.18800
C2479       C  0.58044392  0.08232939  0.74820263    -0.07200
C2480       C  0.59195258  0.07891856  0.75241535    -0.03300
C2481       C  0.59380527  0.06705644  0.75668843    -0.08600
C2482       C  0.58432824  0.05865049  0.75658704    -0.16300
H2483       H  0.52735456  0.01913376  0.76663188     0.11900
H2484       H  0.54190406  0.03587726  0.76855555     0.11200
H2485       H  0.55032393  0.03297710  0.73044050     0.11100
H2486       H  0.53575059  0.01626215  0.72837939     0.11600
H2487       H  0.56216630  0.07659500  0.74463748     0.11700
H2488       H  0.57891062  0.09143895  0.74483150     0.11700
H2489       H  0.60262422  0.06432887  0.76001326     0.11800
H2490       H  0.58594277  0.04948672  0.75978935     0.10600
C2491       C  0.35466602  0.01909262  0.68278107    -0.03200
C2492       C  0.35001931  0.02546709  0.69281857    -0.09000
C2493       C  0.35706272  0.03416803  0.69873115    -0.16600
C2494       C  0.36883883  0.03656235  0.69473317     0.25500
C2495       C  0.37354933  0.03030771  0.68472231    -0.18300
C2496       C  0.36648170  0.02162332  0.67873838    -0.07200
C2497       C  0.37600223  0.04542727  0.70102672    -0.13600
C2498       C  0.38125955  0.05301317  0.70686618    -0.13400
C2499       C  0.38658918  0.06228272  0.71430624     0.25400
C2500       C  0.39883975  0.06527132  0.71305973    -0.18800
C2501       C  0.40384548  0.07454086  0.72014550    -0.07200
C2502       C  0.39664763  0.08080480  0.72861824    -0.03300
C2503       C  0.38436861  0.07771950  0.72980959    -0.08600
C2504       C  0.37937689  0.06848823  0.72270931    -0.16300
H2505       H  0.34092130  0.02376874  0.69607541     0.11900
H2506       H  0.35333548  0.03900610  0.70645145     0.11200
H2507       H  0.38266468  0.03212371  0.68156708     0.11100
H2508       H  0.37027656  0.01684172  0.67102564     0.11600
H2509       H  0.40446398  0.06056430  0.70650801     0.11700
H2510       H  0.41323401  0.07699613  0.71877291     0.11700
H2511       H  0.37863954  0.08246199  0.73623933     0.11800
H2512       H  0.36987361  0.06624597  0.72371081     0.10600
C2513       C  0.42397241  0.10700127  0.75357996    -0.03200
C2514       C  0.42938326  0.09960144  0.76246474    -0.09000
C2515       C  0.43840623  0.10429056  0.77005171    -0.16600
C2516       C  0.44200930  0.11642252  0.76888268     0.25500
C2517       C  0.43676791  0.12378391  0.75996644    -0.18300
C2518       C  0.42778930  0.11910987  0.75236962    -0.07200
C2519       C  0.45064149  0.12158070  0.77715541    -0.13600
C2520       C  0.45748872  0.12667397  0.78397004    -0.13400
C2521       C  0.46537558  0.13349810  0.79177340     0.25400
C2522       C  0.46865771  0.14533681  0.78855486    -0.18800
C2523       C  0.47640434  0.15202659  0.79601981    -0.07200
C2524       C  0.48093357  0.14694753  0.80682663    -0.03300
C2525       C  0.47746484  0.13509200  0.81007611    -0.08600
C2526       C  0.46973075  0.12839779  0.80256523    -0.16300
H2527       H  0.42635699  0.09035845  0.76385806     0.11900
H2528       H  0.44234769  0.09855847  0.77700862     0.11200
H2529       H  0.43947054  0.13320179  0.75902903     0.11100
H2530       H  0.42371997  0.12499437  0.74562191     0.11600
H2531       H  0.46527433  0.14937573  0.78024098     0.11700
H2532       H  0.47888701  0.16114737  0.79330200     0.11700
H2533       H  0.48082774  0.13095077  0.81833893     0.11800
H2534       H  0.46719491  0.11924586  0.80514166     0.10600
C2535       C  0.42148093  0.08175280  0.74144146    -0.03200
C2536       C  0.41837946  0.07033645  0.74618535    -0.09000
C2537       C  0.42689778  0.06094630  0.74640348    -0.16600
C2538       C  0.43858124  0.06287437  0.74184486     0.25500
C2539       C  0.44171776  0.07425318  0.73709326    -0.18300
C2540       C  0.43320954  0.08366410  0.73691697    -0.07200
C2541       C  0.44732927  0.05317738  0.74207047    -0.13600
C2542       C  0.45457904  0.04498684  0.74233203    -0.13400
C2543       C  0.46318680  0.03516748  0.74267968     0.25400
C2544       C  0.46763720  0.03022357  0.73184853    -0.18800
C2545       C  0.47604227  0.02073145  0.73216949    -0.07200
C2546       C  0.48009208  0.01603759  0.74334941    -0.03300
C2547       C  0.47552763  0.02102341  0.75419200    -0.08600
C2548       C  0.46713570  0.03053757  0.75384692    -0.16300
H2549       H  0.40937665  0.06875873  0.74974566     0.11900
H2550       H  0.42437663  0.05219067  0.75011537     0.11200
H2551       H  0.45072311  0.07584328  0.73352671     0.11100
H2552       H  0.43569469  0.09240956  0.73317581     0.11600
H2553       H  0.46463981  0.03372908  0.72315327     0.11700
H2554       H  0.47939662  0.01709778  0.72366549     0.11700
H2555       H  0.47850876  0.01764016  0.76293446     0.11800
H2556       H  0.46375253  0.03430238  0.76228795     0.10600
C2557       C  0.61964607  0.90314530  0.73260646    -0.03200
C2558       C  0.63144436  0.90699325  0.73538252    -0.09000
C2559       C  0.63672087  0.91652596  0.72892347    -0.16600
C2560       C  0.63028859  0.92221390  0.71956764     0.25500
C2561       C  0.61852523  0.91841548  0.71673091    -0.18300
C2562       C  0.61321926  0.90889821  0.72321767    -0.07200
C2563       C  0.63593497  0.93171044  0.71268705    -0.13600
C2564       C  0.64105785  0.93944194  0.70693292    -0.13400
C2565       C  0.64749410  0.94846943  0.70011654     0.25400
C2566       C  0.64372165  0.95147149  0.68836374    -0.18800
C2567       C  0.64998873  0.96026856  0.68173506    -0.07200
C2568       C  0.66012441  0.96613153  0.68680124    -0.03300
C2569       C  0.66390784  0.96297456  0.69858558    -0.08600
C2570       C  0.65760713  0.95419518  0.70520580    -0.16300
H2571       H  0.63654232  0.90265019  0.74258303     0.11900
H2572       H  0.64584405  0.91939289  0.73115316     0.11200
H2573       H  0.61351923  0.92271442  0.70943528     0.11100
H2574       H  0.60420816  0.90589208  0.72076197     0.11600
H2575       H  0.63591695  0.94704959  0.68434594     0.11700
H2576       H  0.64686036  0.96252775  0.67268586     0.11700
H2577       H  0.67164275  0.96738147  0.70273895     0.11800
H2578       H  0.66059543  0.95190162  0.71430073     0.10600
C2579       C  0.59115989  0.87744936  0.75630704    -0.03200
C2580       C  0.58617419  0.86588335  0.75442420    -0.09000
C2581       C  0.57639641  0.86197598  0.76144833    -0.16600
C2582       C  0.57162553  0.86955840  0.77047468     0.25500
C2583       C  0.57656835  0.88109689  0.77240179    -0.18300
C2584       C  0.58631679  0.88502684  0.76535706    -0.07200
C2585       C  0.56203266  0.86522895  0.77810150    -0.13600
C2586       C  0.55438742  0.86083216  0.78451220    -0.13400
C2587       C  0.54574422  0.85451491  0.79189126     0.25400
C2588       C  0.53976192  0.86045998  0.80140049    -0.18800
C2589       C  0.53146623  0.85410668  0.80860013    -0.07200
C2590       C  0.52906578  0.84177359  0.80627933    -0.03300
C2591       C  0.53516992  0.83590148  0.79673236    -0.08600
C2592       C  0.54347486  0.84223414  0.78961208    -0.16300
H2593       H  0.58983668  0.85991279  0.74751389     0.11900
H2594       H  0.57265613  0.85299719  0.75994990     0.11200
H2595       H  0.57300924  0.88696949  0.77945336     0.11100
H2596       H  0.59022394  0.89387369  0.76713367     0.11600
H2597       H  0.54149534  0.86997508  0.80323194     0.11700
H2598       H  0.52682299  0.85886155  0.81584797     0.11700
H2599       H  0.53351606  0.82640623  0.79474947     0.11800
H2600       H  0.54811437  0.83755275  0.78230397     0.10600
C2601       C  0.59388145  0.90193292  0.74345646    -0.03200
C2602       C  0.58216910  0.89936367  0.73918513    -0.09000
C2603       C  0.57321544  0.90833542  0.73931862    -0.16600
C2604       C  0.57588806  0.91997748  0.74369827     0.25500
C2605       C  0.58759576  0.92263905  0.74782843    -0.18300
C2606       C  0.59655165  0.91365528  0.74772086    -0.07200
C2607       C  0.56659021  0.92914225  0.74405906    -0.13600
C2608       C  0.55877985  0.93679785  0.74432845    -0.13400
C2609       C  0.54949246  0.94598227  0.74442931     0.25400
C2610       C  0.54392812  0.94937646  0.75535159    -0.18800
C2611       C  0.53495672  0.95836327  0.75540787    -0.07200
C2612       C  0.53143708  0.96404665  0.74451654    -0.03300
C2613       C  0.53706771  0.96054127  0.73359170    -0.08600
C2614       C  0.54603171  0.95158164  0.73356189    -0.16300
H2615       H  0.57998015  0.89037866  0.73583133     0.11900
H2616       H  0.56419983  0.90617503  0.73608067     0.11200
H2617       H  0.58976381  0.93161478  0.75123934     0.11100
H2618       H  0.60550261  0.91575330  0.75114861     0.11600
H2619       H  0.54653212  0.94509113  0.76382001     0.11700
H2620       H  0.53077316  0.96084616  0.76395422     0.11700
H2621       H  0.53456486  0.96473827  0.72505429     0.11800
H2622       H  0.55027220  0.94903003  0.72505664     0.10600
C2623       C  0.35198917  0.96739431  0.68232352    -0.03200
C2624       C  0.34936618  0.96449405  0.69448815    -0.09000
C2625       C  0.35569330  0.95524768  0.70040201    -0.16600
C2626       C  0.36467380  0.94875900  0.69422953     0.25500
C2627       C  0.36731858  0.95152930  0.68210672    -0.18300
C2628       C  0.36103133  0.96082437  0.67617919    -0.07200
C2629       C  0.37113136  0.93925634  0.70037679    -0.13600
C2630       C  0.37629552  0.93129230  0.70578424    -0.13400
C2631       C  0.38209108  0.92172381  0.71246570     0.25400
C2632       C  0.38142608  0.90974910  0.70825031    -0.18800
C2633       C  0.38661544  0.90035649  0.71499725    -0.07200
C2634       C  0.39259593  0.90287141  0.72597596    -0.03300
C2635       C  0.39326541  0.91491860  0.73014183    -0.08600
C2636       C  0.38805353  0.92430589  0.72339357    -0.16300
H2637       H  0.34247616  0.96942016  0.69946399     0.11900
H2638       H  0.35358510  0.95316424  0.70978972     0.11200
H2639       H  0.37424392  0.94652439  0.67725108     0.11100
H2640       H  0.36321101  0.96283939  0.66680038     0.11600
H2641       H  0.37677410  0.90765939  0.69983269     0.11700
H2642       H  0.38592497  0.89111438  0.71168062     0.11700
H2643       H  0.39750614  0.91703507  0.73875795     0.11800
H2644       H  0.38850253  0.93353757  0.72678855     0.10600
C2645       C  0.41816849  0.87824540  0.75396712    -0.03200
C2646       C  0.41553080  0.87360019  0.76553938    -0.09000
C2647       C  0.42483950  0.86952329  0.77307404    -0.16600
C2648       C  0.43684872  0.86997506  0.76907054     0.25500
C2649       C  0.43955598  0.87453870  0.75751933    -0.18300
C2650       C  0.43024191  0.87864111  0.74997227    -0.07200
C2651       C  0.44628310  0.86524571  0.77665513    -0.13600
C2652       C  0.45380955  0.86060632  0.78303394    -0.13400
C2653       C  0.46238244  0.85427648  0.79047581     0.25400
C2654       C  0.46644075  0.84278980  0.78690812    -0.18800
C2655       C  0.47461189  0.83643628  0.79417861    -0.07200
C2656       C  0.47880243  0.84151060  0.80512825    -0.03300
C2657       C  0.47464805  0.85305655  0.80867462    -0.08600
C2658       C  0.46646671  0.85940834  0.80136575    -0.16300
H2659       H  0.40627037  0.87318552  0.76875591     0.11900
H2660       H  0.42266615  0.86591945  0.78197213     0.11200
H2661       H  0.44882552  0.87478387  0.75430089     0.11100
H2662       H  0.43243950  0.88192408  0.74096689     0.11600
H2663       H  0.46327449  0.83873653  0.77850948     0.11700
H2664       H  0.47766332  0.82756893  0.79121021     0.11700
H2665       H  0.47775881  0.85719369  0.81704437     0.11800
H2666       H  0.46332194  0.86829079  0.80420561     0.10600
C2667       C  0.41729009  0.90197181  0.73917173    -0.03200
C2668       C  0.42205641  0.90588493  0.72800789    -0.09000
C2669       C  0.43120597  0.91467878  0.72768600    -0.16600
C2670       C  0.43567510  0.91964174  0.73852417     0.25500
C2671       C  0.43091560  0.91580000  0.74967616    -0.18300
C2672       C  0.42175816  0.90703291  0.75000010    -0.07200
C2673       C  0.44509847  0.92870189  0.73826163    -0.13600
C2674       C  0.45292363  0.93635809  0.73847616    -0.13400
C2675       C  0.46215292  0.94558550  0.73931089     0.25400
C2676       C  0.46564937  0.95000217  0.75071250    -0.18800
C2677       C  0.47452019  0.95901949  0.75162559    -0.07200
C2678       C  0.48002670  0.96377255  0.74112414    -0.03300
C2679       C  0.47647800  0.95927166  0.72968980    -0.08600
C2680       C  0.46759684  0.95022823  0.72879944    -0.16300
H2681       H  0.41874901  0.90203226  0.71958194     0.11900
H2682       H  0.43481051  0.91757914  0.71900364     0.11200
H2683       H  0.43427635  0.91959051  0.75811837     0.11100
H2684       H  0.41812238  0.90418698  0.75867922     0.11600
H2685       H  0.46149880  0.94648736  0.75891021     0.11700
H2686       H  0.47704333  0.96228700  0.76055981     0.11700
H2687       H  0.48055809  0.96273532  0.72144278     0.11800
H2688       H  0.46496386  0.94687986  0.71992195     0.10600
C2689       C  0.65314992  0.68284975  0.02660542    -0.03200
C2690       C  0.64188541  0.67808527  0.03019476    -0.09000
C2691       C  0.63491110  0.68406920  0.03896503    -0.16600
C2692       C  0.63912903  0.69484645  0.04424067     0.25500
C2693       C  0.65036948  0.69957795  0.04080055    -0.18300
C2694       C  0.65733549  0.69363646  0.03203980    -0.07200
C2695       C  0.63197381  0.70113563  0.05315792    -0.13600
C2696       C  0.62643843  0.70677352  0.06071985    -0.13400
C2697       C  0.62044583  0.71381680  0.06992977     0.25400
C2698       C  0.62716416  0.72192640  0.07703612    -0.18800
C2699       C  0.62147661  0.72867411  0.08613323    -0.07200
C2700       C  0.60898150  0.72745127  0.08817475    -0.03300
C2701       C  0.60227794  0.71927171  0.08103186    -0.08600
C2702       C  0.60798912  0.71251209  0.07191847    -0.16300
H2703       H  0.63840668  0.66983004  0.02612910     0.11900
H2704       H  0.62621497  0.68033478  0.04157651     0.11200
H2705       H  0.65372226  0.70790661  0.04484121     0.11100
H2706       H  0.66595907  0.69754576  0.02945823     0.11600
H2707       H  0.63681109  0.72299280  0.07558103     0.11700
H2708       H  0.62682706  0.73490047  0.09155286     0.11700
H2709       H  0.59270075  0.71793403  0.08263979     0.11800
H2710       H  0.60272488  0.70619909  0.06651036     0.10600
C2711       C  0.52167649  0.81055295  0.14270751    -0.03200
C2712       C  0.52726782  0.81382011  0.13170001    -0.09000
C2713       C  0.53553738  0.80594853  0.12615064    -0.16600
C2714       C  0.53827082  0.79476867  0.13155284     0.25500
C2715       C  0.53274461  0.79146942  0.14248594    -0.18300
C2716       C  0.52449861  0.79929298  0.14803152    -0.07200
C2717       C  0.54685809  0.78666018  0.12607812    -0.13600
C2718       C  0.55412744  0.77945942  0.12227880    -0.13400
C2719       C  0.56295736  0.77064526  0.11856549     0.25400
C2720       C  0.56612353  0.76119487  0.12645783    -0.18800
C2721       C  0.57506066  0.75286627  0.12311335    -0.07200
C2722       C  0.58083254  0.75386054  0.11179820    -0.03300
C2723       C  0.57758661  0.76335067  0.10390518    -0.08600
C2724       C  0.56865982  0.77168624  0.10726742    -0.16300
H2725       H  0.52525487  0.82243021  0.12739452     0.11900
H2726       H  0.53980497  0.80858207  0.11768861     0.11200
H2727       H  0.53483260  0.78284544  0.14674587     0.11100
H2728       H  0.52034648  0.79651977  0.15650159     0.11600
H2729       H  0.56178315  0.76035092  0.13524666     0.11700
H2730       H  0.57749325  0.74566179  0.12935478     0.11700
H2731       H  0.58215849  0.76450764  0.09528518     0.11800
H2732       H  0.56634185  0.77903639  0.10114761     0.10600
C2733       C  0.52493942  0.74757425  0.02257521    -0.03200
C2734       C  0.52913503  0.75810874  0.02847722    -0.09000
C2735       C  0.53817826  0.75733983  0.03736313    -0.16600
C2736       C  0.54317747  0.74605650  0.04041905     0.25500
C2737       C  0.53910755  0.73554465  0.03453582    -0.18300
C2738       C  0.53004326  0.73628415  0.02568823    -0.07200
C2739       C  0.55229162  0.74520262  0.04975808    -0.13600
C2740       C  0.55966929  0.74429933  0.05780183    -0.13400
C2741       C  0.56809265  0.74307088  0.06773112     0.25400
C2742       C  0.56402856  0.73879801  0.07899605    -0.18800
C2743       C  0.57209315  0.73774402  0.08872644    -0.07200
C2744       C  0.58431669  0.74095624  0.08730760    -0.03300
C2745       C  0.58838247  0.74516395  0.07597626    -0.08600
C2746       C  0.58030126  0.74621130  0.06622588    -0.16300
H2747       H  0.52537556  0.76692564  0.02628821     0.11900
H2748       H  0.54123179  0.76553499  0.04188289     0.11200
H2749       H  0.54289670  0.72676120  0.03683214     0.11100
H2750       H  0.52704129  0.72801644  0.02127872     0.11600
H2751       H  0.55461429  0.73633474  0.08027225     0.11700
H2752       H  0.56882691  0.73446616  0.09740211     0.11700
H2753       H  0.59775450  0.74778475  0.07476953     0.11800
H2754       H  0.58354601  0.74954543  0.05755751     0.10600
C2755       C  0.34661582  0.68598501  0.02021977    -0.03200
C2756       C  0.34192414  0.69692064  0.02484184    -0.09000
C2757       C  0.34856016  0.70375601  0.03319501    -0.16600
C2758       C  0.35996976  0.69978655  0.03702867     0.25500
C2759       C  0.36471550  0.68888427  0.03253933    -0.18300
C2760       C  0.35806613  0.68199830  0.02417801    -0.07200
C2761       C  0.36665907  0.70701766  0.04558569    -0.13600
C2762       C  0.37119252  0.71386280  0.05281608    -0.13400
C2763       C  0.37518648  0.72280360  0.06145141     0.25400
C2764       C  0.38669704  0.72208327  0.06673833    -0.18800
C2765       C  0.39032193  0.73078530  0.07527661    -0.07200
C2766       C  0.38249067  0.74033439  0.07850455    -0.03300
C2767       C  0.37094543  0.74092416  0.07319394    -0.08600
C2768       C  0.36733677  0.73223474  0.06469669    -0.16300
H2769       H  0.33314492  0.70023243  0.02196451     0.11900
H2770       H  0.34480485  0.71217691  0.03663691     0.11200
H2771       H  0.37354383  0.68573630  0.03546102     0.11100
H2772       H  0.36192482  0.67363530  0.02073151     0.11600
H2773       H  0.39280598  0.71476031  0.06435196     0.11700
H2774       H  0.39913811  0.72992915  0.07948978     0.11700
H2775       H  0.36474176  0.74816587  0.07556805     0.11800
H2776       H  0.35839503  0.73284899  0.06067942     0.10600
C2777       C  0.47093864  0.81633372  0.14002109    -0.03200
C2778       C  0.46757303  0.82048516  0.12840449    -0.09000
C2779       C  0.45839932  0.81459006  0.12187314    -0.16600
C2780       C  0.45250971  0.80450046  0.12688169     0.25500
C2781       C  0.45583308  0.80031067  0.13840581    -0.18300
C2782       C  0.46497405  0.80616853  0.14493239    -0.07200
C2783       C  0.44296720  0.79841723  0.12037045    -0.13600
C2784       C  0.43481020  0.79276574  0.11577390    -0.13400
C2785       C  0.42498969  0.78542892  0.11129671     0.25400
C2786       C  0.41827093  0.77837253  0.11944654    -0.18800
C2787       C  0.40889552  0.77097999  0.11521249    -0.07200
C2788       C  0.40620304  0.77047597  0.10275738    -0.03300
C2789       C  0.41280778  0.77776951  0.09463307    -0.08600
C2790       C  0.42220086  0.78517382  0.09888491    -0.16300
H2791       H  0.47202233  0.82826855  0.12437448     0.11900
H2792       H  0.45589216  0.81790662  0.11295218     0.11200
H2793       H  0.45133248  0.79251192  0.14236834     0.11100
H2794       H  0.46736257  0.80273074  0.15383512     0.11600
H2795       H  0.42033799  0.77852188  0.12907312     0.11700
H2796       H  0.40387796  0.76548341  0.12163553     0.11700
H2797       H  0.41067981  0.77777787  0.08502897     0.11800
H2798       H  0.42729133  0.79066092  0.09250833     0.10600
C2799       C  0.47327953  0.74941472  0.02297589    -0.03200
C2800       C  0.46779919  0.73847814  0.02665552    -0.09000
C2801       C  0.45883844  0.73849832  0.03563267    -0.16600
C2802       C  0.45527471  0.74942813  0.04105883     0.25500
C2803       C  0.46073249  0.76033839  0.03751359    -0.18300
C2804       C  0.46967514  0.76034530  0.02852738    -0.07200
C2805       C  0.44575979  0.74953122  0.04998304    -0.13600
C2806       C  0.43747658  0.74994597  0.05709951    -0.13400
C2807       C  0.42722264  0.75087187  0.06510191     0.25400
C2808       C  0.41581557  0.75372161  0.06033144    -0.18800
C2809       C  0.40586379  0.75498478  0.06805854    -0.07200
C2810       C  0.40721248  0.75335463  0.08063328    -0.03300
C2811       C  0.41864592  0.75036427  0.08536731    -0.08600
C2812       C  0.42862160  0.74916650  0.07763511    -0.16300
H2813       H  0.47037689  0.72992007  0.02254555     0.11900
H2814       H  0.45463510  0.73000731  0.03827786     0.11200
H2815       H  0.45801142  0.76885492  0.04163200     0.11100
H2816       H  0.47373850  0.76890558  0.02590692     0.11600
H2817       H  0.41464185  0.75508149  0.05065123     0.11700
H2818       H  0.39712741  0.75736808  0.06428119     0.11700
H2819       H  0.41981219  0.74901983  0.09504274     0.11800
H2820       H  0.43740966  0.74696955  0.08142375     0.10600
C2821       C  0.61071874  0.72953386  0.91317388    -0.03200
C2822       C  0.61480702  0.71750976  0.91235048    -0.09000
C2823       C  0.61871459  0.71141697  0.92274570    -0.16600
C2824       C  0.61866858  0.71734808  0.93399663     0.25500
C2825       C  0.61450060  0.72930943  0.93490270    -0.18300
C2826       C  0.61052631  0.73539136  0.92451714    -0.07200
C2827       C  0.62378478  0.71141818  0.94436597    -0.13600
C2828       C  0.62907888  0.70623780  0.95236427    -0.13400
C2829       C  0.63633937  0.69977277  0.96097891     0.25400
C2830       C  0.63304161  0.68803679  0.96450077    -0.18800
C2831       C  0.64055224  0.68140427  0.97223392    -0.07200
C2832       C  0.65146253  0.68645388  0.97649628    -0.03300
C2833       C  0.65465129  0.69830233  0.97298544    -0.08600
C2834       C  0.64711892  0.70491843  0.96524368    -0.16300
H2835       H  0.61501525  0.71287843  0.90366431     0.11900
H2836       H  0.62201602  0.70217917  0.92197268     0.11200
H2837       H  0.61458221  0.73400708  0.94355976     0.11100
H2838       H  0.60762535  0.74475561  0.92528294     0.11600
H2839       H  0.62475040  0.68396204  0.96115283     0.11700
H2840       H  0.63784299  0.67231223  0.97482591     0.11700
H2841       H  0.66297564  0.70242628  0.97616516     0.11800
H2842       H  0.64976962  0.71397951  0.96246520     0.10600
C2843       C  0.58810710  0.75603704  0.88461228    -0.03200
C2844       C  0.59152641  0.76667153  0.87848825    -0.09000
C2845       C  0.58271559  0.77442370  0.87375326    -0.16600
C2846       C  0.57044208  0.77156046  0.87505560     0.25500
C2847       C  0.56697102  0.76087115  0.88096345    -0.18300
C2848       C  0.57577191  0.75309791  0.88567095    -0.07200
C2849       C  0.56143929  0.77936230  0.86989776    -0.13600
C2850       C  0.55403958  0.78562052  0.86492291    -0.13400
C2851       C  0.54544469  0.79254314  0.85808095     0.25400
C2852       C  0.54289144  0.78915896  0.84611082    -0.18800
C2853       C  0.53451702  0.79575381  0.83932141    -0.07200
C2854       C  0.52863101  0.80585569  0.84443102    -0.03300
C2855       C  0.53131765  0.80927464  0.85644935    -0.08600
C2856       C  0.53968060  0.80260826  0.86326059    -0.16300
H2857       H  0.60099612  0.76905086  0.87752480     0.11900
H2858       H  0.58546487  0.78262830  0.86906971     0.11200
H2859       H  0.55748503  0.75850421  0.88184153     0.11100
H2860       H  0.57294276  0.74475634  0.89003065     0.11600
H2861       H  0.54735215  0.78139181  0.84203449     0.11700
H2862       H  0.53264877  0.79293966  0.83007592     0.11700
H2863       H  0.52686519  0.81699060  0.86061190     0.11800
H2864       H  0.54162716  0.80527560  0.87253828     0.10600
C2865       C  0.58753148  0.74428631  0.90991130    -0.03200
C2866       C  0.58422144  0.75587239  0.91408068    -0.09000
C2867       C  0.57499410  0.75716392  0.92268131    -0.16600
C2868       C  0.56900908  0.74688083  0.92715988     0.25500
C2869       C  0.57229100  0.73530853  0.92302603    -0.18300
C2870       C  0.58152585  0.73401467  0.91445291    -0.07200
C2871       C  0.55957176  0.74814283  0.93606937    -0.13600
C2872       C  0.55171938  0.74880419  0.94363987    -0.13400
C2873       C  0.54243581  0.74906740  0.95279439     0.25400
C2874       C  0.53701782  0.73821745  0.95655817    -0.18800
C2875       C  0.52812482  0.73835846  0.96557758    -0.07200
C2876       C  0.52451921  0.74937966  0.97094473    -0.03300
C2877       C  0.52997270  0.76025956  0.96707090    -0.08600
C2878       C  0.53889535  0.76009116  0.95805111    -0.16300
H2879       H  0.58882959  0.76386285  0.91068959     0.11900
H2880       H  0.57254234  0.76615419  0.92584512     0.11200
H2881       H  0.56771744  0.72729547  0.92643358     0.11100
H2882       H  0.58395801  0.72503388  0.91126568     0.11600
H2883       H  0.53969785  0.72963617  0.95254764     0.11700
H2884       H  0.52407745  0.72983701  0.96834589     0.11700
H2885       H  0.52738545  0.76888067  0.97104051     0.11800
H2886       H  0.54305070  0.76854066  0.95520655     0.10600
C2887       C  0.39043943  0.73031294  0.90768067    -0.03200
C2888       C  0.38656960  0.71835619  0.90551579    -0.09000
C2889       C  0.38188649  0.71133755  0.91497308    -0.16600
C2890       C  0.38093385  0.71623426  0.92666733     0.25500
C2891       C  0.38494029  0.72809221  0.92894312    -0.18300
C2892       C  0.38968208  0.73511335  0.91948676    -0.07200
C2893       C  0.37512382  0.70934759  0.93609416    -0.13600
C2894       C  0.36956491  0.70371998  0.94363446    -0.13400
C2895       C  0.36231748  0.69728257  0.95235141     0.25400
C2896       C  0.35145611  0.70237402  0.95645988    -0.18800
C2897       C  0.34434148  0.69617488  0.96491979    -0.07200
C2898       C  0.34802291  0.68479000  0.96937711    -0.03300
C2899       C  0.35891115  0.67969327  0.96512339    -0.08600
C2900       C  0.36601155  0.68591339  0.95665047    -0.16300
H2901       H  0.38706540  0.71450077  0.89647010     0.11900
H2902       H  0.37876111  0.70219212  0.91310908     0.11200
H2903       H  0.38413142  0.73200128  0.93794614     0.11100
H2904       H  0.39237704  0.74439459  0.92130874     0.11600
H2905       H  0.34849860  0.71115292  0.95314179     0.11700
H2906       H  0.33600364  0.70032469  0.96801684     0.11700
H2907       H  0.36196890  0.67093303  0.96837937     0.11800
H2908       H  0.37438218  0.68187463  0.95347973     0.10600
C2909       C  0.41420573  0.75865081  0.88154931    -0.03200
C2910       C  0.42644931  0.75565511  0.88332096    -0.09000
C2911       C  0.43556465  0.76293766  0.87839871    -0.16600
C2912       C  0.43253851  0.77320624  0.87155782     0.25500
C2913       C  0.42036684  0.77620348  0.86967425    -0.18300
C2914       C  0.41123835  0.76894050  0.87461873    -0.07200
C2915       C  0.44192372  0.78043213  0.86615338    -0.13600
C2916       C  0.44982918  0.78621462  0.86133789    -0.13400
C2917       C  0.45924840  0.79277415  0.85519400     0.25400
C2918       C  0.46404183  0.80339441  0.86028091    -0.18800
C2919       C  0.47314020  0.80979297  0.85419183    -0.07200
C2920       C  0.47753731  0.80559952  0.84295477    -0.03300
C2921       C  0.47269773  0.79487909  0.83796166    -0.08600
C2922       C  0.46360140  0.78852393  0.84404521    -0.16300
H2923       H  0.42898161  0.74754255  0.88825342     0.11900
H2924       H  0.44496310  0.76046323  0.87977792     0.11200
H2925       H  0.41793756  0.78408833  0.86431239     0.11100
H2926       H  0.40185855  0.77134968  0.87304256     0.11600
H2927       H  0.46073066  0.80673825  0.86892531     0.11700
H2928       H  0.47672436  0.81799878  0.85826665     0.11700
H2929       H  0.47589909  0.79142322  0.82932430     0.11800
H2930       H  0.45994637  0.78030675  0.84004066     0.10600
C2931       C  0.47345484  0.75105943  0.97076353    -0.03200
C2932       C  0.47092802  0.74063951  0.96380735    -0.09000
C2933       C  0.46229364  0.74101736  0.95453336    -0.16600
C2934       C  0.45599783  0.75177574  0.95211748     0.25500
C2935       C  0.45845181  0.76221807  0.95897619    -0.18300
C2936       C  0.46717310  0.76188404  0.96822241    -0.07200
C2937       C  0.44694524  0.75193735  0.94268645    -0.13600
C2938       C  0.43939322  0.75132554  0.93478132    -0.13400
C2939       C  0.43044212  0.74984683  0.92536712     0.25400
C2940       C  0.42465965  0.75999273  0.92033907    -0.18800
C2941       C  0.41600684  0.75847107  0.91117070    -0.07200
C2942       C  0.41306694  0.74679213  0.90694442    -0.03300
C2943       C  0.41887212  0.73665929  0.91203863    -0.08600
C2944       C  0.42751189  0.73818222  0.92120254    -0.16300
H2945       H  0.47568109  0.73220034  0.96548540     0.11900
H2946       H  0.46049018  0.73288917  0.94927296     0.11200
H2947       H  0.45361691  0.77059419  0.95719809     0.11100
H2948       H  0.46892431  0.77004087  0.97344332     0.11600
H2949       H  0.42684591  0.76905761  0.92348928     0.11700
H2950       H  0.41158465  0.76637273  0.90734785     0.11700
H2951       H  0.41679172  0.72760691  0.90880295     0.11800
H2952       H  0.43194199  0.73026798  0.92500853     0.10600
C2953       C  0.64123558  0.02603346  0.30958502    -0.03200
C2954       C  0.63186230  0.03228946  0.31555356    -0.09000
C2955       C  0.62565835  0.04162502  0.30964932    -0.16600
C2956       C  0.62871430  0.04473286  0.29772187     0.25500
C2957       C  0.63792287  0.03846269  0.29166065    -0.18300
C2958       C  0.64417957  0.02916770  0.29756348    -0.07200
C2959       C  0.62264074  0.05456511  0.29177623    -0.13600
C2960       C  0.61799786  0.06296975  0.28660766    -0.13400
C2961       C  0.61302434  0.07311472  0.28018204     0.25400
C2962       C  0.62076066  0.08105686  0.27401474    -0.18800
C2963       C  0.61598827  0.09088419  0.26761777    -0.07200
C2964       C  0.60342929  0.09279379  0.26727132    -0.03300
C2965       C  0.59572098  0.08490391  0.27365821    -0.08600
C2966       C  0.60050807  0.07505741  0.28004335    -0.16300
H2967       H  0.62946354  0.03010772  0.32484123     0.11900
H2968       H  0.61856655  0.04648297  0.31441322     0.11200
H2969       H  0.64034645  0.04084264  0.28242162     0.11100
H2970       H  0.65135350  0.02449027  0.29275414     0.11600
H2971       H  0.63046960  0.07962667  0.27411880     0.11700
H2972       H  0.62208182  0.09691327  0.26281291     0.11700
H2973       H  0.58603944  0.08642030  0.27383215     0.11800
H2974       H  0.59447142  0.06899455  0.28488571     0.10600
C2975       C  0.52075554  0.15501344  0.18550039    -0.03200
C2976       C  0.52429422  0.15952484  0.19691466    -0.09000
C2977       C  0.53249908  0.15308700  0.20405748    -0.16600
C2978       C  0.53729056  0.14210603  0.19987326     0.25500
C2979       C  0.53399015  0.13761223  0.18844978    -0.18300
C2980       C  0.52573580  0.14403372  0.18128137    -0.07200
C2981       C  0.54555299  0.13553404  0.20743767    -0.13600
C2982       C  0.55248058  0.13087341  0.21444076    -0.13400
C2983       C  0.56084739  0.12640471  0.22331289     0.25400
C2984       C  0.56742980  0.11577880  0.22111174    -0.18800
C2985       C  0.57595435  0.11180435  0.22959212    -0.07200
C2986       C  0.57791526  0.11843662  0.24032450    -0.03300
C2987       C  0.57126169  0.12906517  0.24248136    -0.08600
C2988       C  0.56271237  0.13300132  0.23402608    -0.16300
H2989       H  0.52058597  0.16793515  0.20041425     0.11900
H2990       H  0.53503935  0.15662905  0.21289120     0.11200
H2991       H  0.53770826  0.12912447  0.18514067     0.11100
H2992       H  0.52316946  0.14036253  0.17251787     0.11600
H2993       H  0.56609437  0.11067850  0.21279290     0.11700
H2994       H  0.58118390  0.10371199  0.22766003     0.11700
H2995       H  0.57267385  0.13428428  0.25071057     0.11800
H2996       H  0.55766033  0.14125875  0.23576871     0.10600
C2997       C  0.58101049  0.09276338  0.25047543    -0.03200
C2998       C  0.58587076  0.08201530  0.24562013    -0.09000
C2999       C  0.57833461  0.07206967  0.24318820    -0.16600
C3000       C  0.56589072  0.07281237  0.24559064     0.25500
C3001       C  0.56101911  0.08355048  0.25034142    -0.18300
C3002       C  0.56852945  0.09346902  0.25276126    -0.07200
C3003       C  0.55809928  0.06249253  0.24366201    -0.13600
C3004       C  0.55106148  0.05414356  0.24287472    -0.13400
C3005       C  0.54222252  0.04451663  0.24293598     0.25400
C3006       C  0.53903781  0.03900805  0.25393975    -0.18800
C3007       C  0.53012716  0.02999343  0.25421813    -0.07200
C3008       C  0.52428310  0.02633620  0.24346543    -0.03300
C3009       C  0.52760672  0.03184311  0.23241349    -0.08600
C3010       C  0.53650487  0.04090292  0.23216408    -0.16300
H3011       H  0.59547380  0.08136647  0.24374795     0.11900
H3012       H  0.58221120  0.06379637  0.23954183     0.11200
H3013       H  0.55142437  0.08421212  0.25229386     0.11100
H3014       H  0.56466307  0.10167266  0.25655763     0.11600
H3015       H  0.54337410  0.04176114  0.26233728     0.11700
H3016       H  0.52779027  0.02591543  0.26285844     0.11700
H3017       H  0.52324805  0.02924036  0.22398633     0.11800
H3018       H  0.53885148  0.04514448  0.22360034     0.10600
C3019       C  0.34759266  0.02223217  0.30858041    -0.03200
C3020       C  0.35999067  0.02397589  0.31097267    -0.09000
C3021       C  0.36651692  0.03292691  0.30480350    -0.16600
C3022       C  0.36073544  0.04026811  0.29620681     0.25500
C3023       C  0.34841926  0.03855068  0.29370490    -0.18300
C3024       C  0.34188133  0.02955799  0.29982549    -0.07200
C3025       C  0.36736370  0.04974467  0.29015847    -0.13600
C3026       C  0.37265511  0.05794488  0.28522189    -0.13400
C3027       C  0.37846120  0.06805860  0.27935724     0.25400
C3028       C  0.38356496  0.06666255  0.26780109    -0.18800
C3029       C  0.38853394  0.07668153  0.26180014    -0.07200
C3030       C  0.38851319  0.08819405  0.26733960    -0.03300
C3031       C  0.38348616  0.08948911  0.27899221    -0.08600
C3032       C  0.37852397  0.07946627  0.28498210    -0.16300
H3033       H  0.36465362  0.01841519  0.31760584     0.11900
H3034       H  0.37604655  0.03417629  0.30680004     0.11200
H3035       H  0.34385599  0.04420762  0.28707622     0.11100
H3036       H  0.33235114  0.02841626  0.29779405     0.11600
H3037       H  0.38346024  0.05789486  0.26331973     0.11700
H3038       H  0.39200404  0.07549389  0.25268180     0.11700
H3039       H  0.38330740  0.09828484  0.28340715     0.11800
H3040       H  0.37455149  0.08065504  0.29390575     0.10600
C3041       C  0.47036889  0.15445139  0.18679340    -0.03200
C3042       C  0.46626485  0.15950890  0.19779003    -0.09000
C3043       C  0.45801622  0.15322187  0.20506641    -0.16600
C3044       C  0.45376082  0.14180052  0.20147626     0.25500
C3045       C  0.45778759  0.13667339  0.19055446    -0.18300
C3046       C  0.46605099  0.14295644  0.18324480    -0.07200
C3047       C  0.44521102  0.13544443  0.20901416    -0.13600
C3048       C  0.43796002  0.13056583  0.21558415    -0.13400
C3049       C  0.42916737  0.12524978  0.22362792     0.25400
C3050       C  0.41680167  0.12702381  0.22148879    -0.18800
C3051       C  0.40823786  0.12220276  0.22948913    -0.07200
C3052       C  0.41193911  0.11549633  0.23969640    -0.03300
C3053       C  0.42437791  0.11383039  0.24184429    -0.08600
C3054       C  0.43294069  0.11863596  0.23381282    -0.16300
H3055       H  0.46943958  0.16832395  0.20079056     0.11900
H3056       H  0.45495505  0.15727483  0.21349983     0.11200
H3057       H  0.45454462  0.12783200  0.18769162     0.11100
H3058       H  0.46907544  0.13881457  0.17484995     0.11600
H3059       H  0.41378185  0.13219596  0.21368028     0.11700
H3060       H  0.39870636  0.12366316  0.22767855     0.11700
H3061       H  0.42749402  0.10903133  0.24983490     0.11800
H3062       H  0.44249692  0.11732806  0.23562883     0.10600
C3063       C  0.41176111  0.09020021  0.25195059    -0.03200
C3064       C  0.41467325  0.08586959  0.24030999    -0.09000
C3065       C  0.42342311  0.07679596  0.23887348    -0.16600
C3066       C  0.42932064  0.07198281  0.24906465     0.25500
C3067       C  0.42642288  0.07626575  0.26069066    -0.18300
C3068       C  0.41767485  0.08532126  0.26212879    -0.07200
C3069       C  0.43832744  0.06263979  0.24764912    -0.13600
C3070       C  0.44590118  0.05479275  0.24683112    -0.13400
C3071       C  0.45497102  0.04541692  0.24630920     0.25400
C3072       C  0.45999042  0.04089540  0.25707150    -0.18800
C3073       C  0.46880856  0.03180064  0.25664570    -0.07200
C3074       C  0.47273610  0.02710462  0.24542492    -0.03300
C3075       C  0.46763482  0.03169370  0.23464494    -0.08600
C3076       C  0.45880214  0.04079684  0.23509596    -0.16300
H3077       H  0.41012474  0.08950076  0.23238710     0.11900
H3078       H  0.42557933  0.07353321  0.22984001     0.11200
H3079       H  0.43093103  0.07261205  0.26863591     0.11100
H3080       H  0.41554527  0.08860950  0.27115314     0.11600
H3081       H  0.45708866  0.04440366  0.26580036     0.11700
H3082       H  0.47255354  0.02845617  0.26510307     0.11700
H3083       H  0.47046270  0.02825174  0.22587291     0.11800
H3084       H  0.45496914  0.04422980  0.22670837     0.10600
C3085       C  0.64176524  0.97404712  0.31114467    -0.03200
C3086       C  0.63178411  0.96860513  0.31694272    -0.09000
C3087       C  0.62527967  0.95932216  0.31118304    -0.16600
C3088       C  0.62864221  0.95541170  0.29955613     0.25500
C3089       C  0.63852561  0.96081440  0.29371529    -0.18300
C3090       C  0.64505489  0.97005546  0.29946053    -0.07200
C3091       C  0.62214173  0.94575303  0.29359671    -0.13600
C3092       C  0.61743073  0.93758165  0.28802041    -0.13400
C3093       C  0.61284511  0.92776089  0.28069159     0.25400
C3094       C  0.62096606  0.92052509  0.27415377    -0.18800
C3095       C  0.61668267  0.91117143  0.26673289    -0.07200
C3096       C  0.60419527  0.90893794  0.26569363    -0.03300
C3097       C  0.59607849  0.91608406  0.27248216    -0.08600
C3098       C  0.60038579  0.92550366  0.27988057    -0.16300
H3099       H  0.62904070  0.97147898  0.32594309     0.11900
H3100       H  0.61766232  0.95518500  0.31580271     0.11200
H3101       H  0.64121522  0.95785157  0.28471975     0.11100
H3102       H  0.65266436  0.97408523  0.29474308     0.11600
H3103       H  0.63062623  0.92216906  0.27472642     0.11700
H3104       H  0.62313877  0.90576495  0.26167033     0.11700
H3105       H  0.58644465  0.91431450  0.27220449     0.11800
H3106       H  0.59401659  0.93099613  0.28496964     0.10600
C3107       C  0.52370734  0.84880626  0.17878819    -0.03200
C3108       C  0.52694310  0.84397253  0.19016619    -0.09000
C3109       C  0.53524892  0.85000082  0.19759972    -0.16600
C3110       C  0.54045075  0.86094148  0.19379719     0.25500
C3111       C  0.53738875  0.86579243  0.18244000    -0.18300
C3112       C  0.52905944  0.85975879  0.17496216    -0.07200
C3113       C  0.54887163  0.86709973  0.20166920    -0.13600
C3114       C  0.55584858  0.87151785  0.20885754    -0.13400
C3115       C  0.56414506  0.87585883  0.21797709     0.25400
C3116       C  0.56860678  0.88775837  0.21756230    -0.18800
C3117       C  0.57680717  0.89179598  0.22639326    -0.07200
C3118       C  0.58051163  0.88400648  0.23582328    -0.03300
C3119       C  0.57601078  0.87206999  0.23611936    -0.08600
C3120       C  0.56786896  0.86803889  0.22727510    -0.16300
H3121       H  0.52296718  0.83557902  0.19339243     0.11900
H3122       H  0.53755991  0.84615747  0.20636352     0.11200
H3123       H  0.54137150  0.87425771  0.17940393     0.11100
H3124       H  0.52671047  0.86372419  0.16627170     0.11600
H3125       H  0.56585786  0.89386266  0.21035060     0.11700
H3126       H  0.58042673  0.90090001  0.22567728     0.11700
H3127       H  0.57876277  0.86586361  0.24323701     0.11800
H3128       H  0.56450239  0.85880026  0.22766950     0.10600
C3129       C  0.52342542  0.97450245  0.24376239    -0.03200
C3130       C  0.52887560  0.97064842  0.25465673    -0.09000
C3131       C  0.53758216  0.96144357  0.25457229    -0.16600
C3132       C  0.54095440  0.95594306  0.24362195     0.25500
C3133       C  0.53561281  0.95972658  0.23271891    -0.18300
C3134       C  0.52690843  0.96897101  0.23277563    -0.07200
C3135       C  0.54976024  0.94630394  0.24368508    -0.13600
C3136       C  0.55698792  0.93811716  0.24429048    -0.13400
C3137       C  0.56537586  0.92819616  0.24558602     0.25400
C3138       C  0.57774996  0.92996651  0.24340565    -0.18800
C3139       C  0.58589433  0.92036353  0.24497571    -0.07200
C3140       C  0.58172331  0.90892674  0.24875920    -0.03300
C3141       C  0.56931388  0.90719488  0.25088788    -0.08600
C3142       C  0.56117995  0.91678543  0.24931066    -0.16300
H3143       H  0.52640854  0.97473939  0.26325880     0.11900
H3144       H  0.54164860  0.95857853  0.26306458     0.11200
H3145       H  0.53813933  0.95550720  0.22419069     0.11100
H3146       H  0.52285879  0.97173170  0.22424923     0.11600
H3147       H  0.58109735  0.93876291  0.24054393     0.11700
H3148       H  0.59543810  0.92180149  0.24324281     0.11700
H3149       H  0.56598547  0.89843048  0.25384817     0.11800
H3150       H  0.55163578  0.91532575  0.25106384     0.10600
C3151       C  0.38159579  0.91624863  0.24670282    -0.03200
C3152       C  0.38798144  0.92003078  0.25708618    -0.09000
C3153       C  0.38279306  0.92831920  0.26515607    -0.16600
C3154       C  0.37113360  0.93279160  0.26299761     0.25500
C3155       C  0.36466918  0.92897776  0.25274199    -0.18300
C3156       C  0.36986153  0.92071097  0.24464613    -0.07200
C3157       C  0.36570446  0.94109771  0.27143906    -0.13600
C3158       C  0.36105313  0.94793211  0.27858028    -0.13400
C3159       C  0.35537257  0.95600055  0.28708805     0.25400
C3160       C  0.34464288  0.96195109  0.28391619    -0.18800
C3161       C  0.33910855  0.96983677  0.29215588    -0.07200
C3162       C  0.34427405  0.97187698  0.30366831    -0.03300
C3163       C  0.35503379  0.96580794  0.30679990    -0.08600
C3164       C  0.36054215  0.95790073  0.29854410    -0.16300
H3165       H  0.39687801  0.91642631  0.25908732     0.11900
H3166       H  0.38781521  0.93113626  0.27313844     0.11200
H3167       H  0.35561052  0.93235379  0.25103443     0.11100
H3168       H  0.36475437  0.91785246  0.23673863     0.11600
H3169       H  0.34057728  0.96052552  0.27506416     0.11700
H3170       H  0.33085088  0.97441462  0.28946939     0.11700
H3171       H  0.35921910  0.96721432  0.31559071     0.11800
H3172       H  0.36884690  0.95330835  0.30107455     0.10600
C3173       C  0.47425021  0.85454384  0.17627931    -0.03200
C3174       C  0.46972670  0.86514223  0.17077995    -0.09000
C3175       C  0.46183932  0.87277415  0.17715751    -0.16600
C3176       C  0.45851424  0.86992384  0.18909364     0.25500
C3177       C  0.46314350  0.85951196  0.19467763    -0.18300
C3178       C  0.47094640  0.85185590  0.18831849    -0.07200
C3179       C  0.44973105  0.87712459  0.19543616    -0.13600
C3180       C  0.44170755  0.88187733  0.20109098    -0.13400
C3181       C  0.43148186  0.88598710  0.20799009     0.25400
C3182       C  0.42472488  0.87753642  0.21463219    -0.18800
C3183       C  0.41443843  0.88124471  0.22097482    -0.07200
C3184       C  0.41085551  0.89346881  0.22081236    -0.03300
C3185       C  0.41767063  0.90192818  0.21412154    -0.08600
C3186       C  0.42797586  0.89819787  0.20775799    -0.16300
H3187       H  0.47215825  0.86743918  0.16152942     0.11900
H3188       H  0.45821650  0.88078200  0.17273993     0.11200
H3189       H  0.46056750  0.85720650  0.20389502     0.11100
H3190       H  0.47437645  0.84381895  0.19282983     0.11600
H3191       H  0.42734569  0.86805088  0.21480902     0.11700
H3192       H  0.40928970  0.87457944  0.22604399     0.11700
H3193       H  0.41490015  0.91134558  0.21361325     0.11800
H3194       H  0.43309194  0.90477683  0.20254018     0.10600
C3195       C  0.40779740  0.91602754  0.23707351    -0.03200
C3196       C  0.40581326  0.92838982  0.23466656    -0.09000
C3197       C  0.41482933  0.93694413  0.23718827    -0.16600
C3198       C  0.42590725  0.93322166  0.24214461     0.25500
C3199       C  0.42790482  0.92090642  0.24463608    -0.18300
C3200       C  0.41888240  0.91234793  0.24212525    -0.07200
C3201       C  0.43537429  0.94198012  0.24419954    -0.13600
C3202       C  0.44336528  0.94938571  0.24518644    -0.13400
C3203       C  0.45292521  0.95828067  0.24531516     0.25400
C3204       C  0.45837148  0.96184187  0.25625105    -0.18800
C3205       C  0.46768795  0.97048277  0.25620345    -0.07200
C3206       C  0.47166561  0.97562469  0.24519683    -0.03300
C3207       C  0.46612722  0.97196477  0.23427868    -0.08600
C3208       C  0.45682534  0.96337162  0.23435280    -0.16300
H3209       H  0.39733229  0.93134981  0.23072186     0.11900
H3210       H  0.41321066  0.94643837  0.23515699     0.11200
H3211       H  0.43645444  0.91791869  0.24842360     0.11100
H3212       H  0.42051252  0.90284949  0.24409398     0.11600
H3213       H  0.45542541  0.95794958  0.26479399     0.11700
H3214       H  0.47177979  0.97312007  0.26475307     0.11700
H3215       H  0.46895385  0.97576978  0.22566122     0.11800
H3216       H  0.45267295  0.96068796  0.22583894     0.10600
C3217       C  0.31573186  0.02173675  0.64983688    -0.03200
C3218       C  0.30548415  0.02671703  0.65556681    -0.09000
C3219       C  0.29929073  0.03642611  0.65029359    -0.16600
C3220       C  0.30324493  0.04125900  0.63923957     0.25500
C3221       C  0.31337772  0.03632174  0.63341837    -0.18300
C3222       C  0.31960240  0.02660330  0.63868423    -0.07200
C3223       C  0.29696231  0.05137552  0.63396862    -0.13600
C3224       C  0.29164314  0.05993438  0.62976323    -0.13400
C3225       C  0.28525106  0.07019733  0.62492507     0.25400
C3226       C  0.28529941  0.07241414  0.61240878    -0.18800
C3227       C  0.27908350  0.08241359  0.60770831    -0.07200
C3228       C  0.27259081  0.09017656  0.61547863    -0.03300
C3229       C  0.27274649  0.08798289  0.62805443    -0.08600
C3230       C  0.27902521  0.07802730  0.63274899    -0.16300
H3231       H  0.30228988  0.02316435  0.66416297     0.11900
H3232       H  0.29145556  0.04019914  0.65486496     0.11200
H3233       H  0.31649652  0.04001971  0.62484984     0.11100
H3234       H  0.32745738  0.02294631  0.63406806     0.11600
H3235       H  0.29019947  0.06646120  0.60629835     0.11700
H3236       H  0.27948901  0.08413762  0.59803881     0.11700
H3237       H  0.26788663  0.09389435  0.63423073     0.11800
H3238       H  0.27899350  0.07641621  0.64246262     0.10600
C3239       C  0.19246243  0.15055231  0.52952346    -0.03200
C3240       C  0.18995304  0.13857019  0.53319459    -0.09000
C3241       C  0.19690680  0.13303468  0.54226213    -0.16600
C3242       C  0.20636726  0.13944367  0.54779725     0.25500
C3243       C  0.20877659  0.15143035  0.54434697    -0.18300
C3244       C  0.20189249  0.15695169  0.53525088    -0.07200
C3245       C  0.21385161  0.13371472  0.55680513    -0.13600
C3246       C  0.22065328  0.12944984  0.56421572    -0.13400
C3247       C  0.22924679  0.12501055  0.57294837     0.25400
C3248       C  0.23967665  0.13179124  0.57547643    -0.18800
C3249       C  0.24800101  0.12764408  0.58408176    -0.07200
C3250       C  0.24602976  0.11660372  0.59012538    -0.03300
C3251       C  0.23554833  0.10983374  0.58756362    -0.08600
C3252       C  0.22718821  0.11402591  0.57900203    -0.16300
H3253       H  0.18277648  0.13340817  0.52890485     0.11900
H3254       H  0.19499014  0.12373798  0.54485994     0.11200
H3255       H  0.21607818  0.15646531  0.54859105     0.11100
H3256       H  0.20400733  0.16619615  0.53264136     0.11600
H3257       H  0.24133880  0.14031038  0.57083921     0.11700
H3258       H  0.25601465  0.13300039  0.58597327     0.11700
H3259       H  0.23373190  0.10142642  0.59232979     0.11800
H3260       H  0.21910589  0.10875280  0.57716061     0.10600
C3261       C  0.25187967  0.02523117  0.53355958    -0.03200
C3262       C  0.24097956  0.03020599  0.53794225    -0.09000
C3263       C  0.24112870  0.03938904  0.54675005    -0.16600
C3264       C  0.25215711  0.04372080  0.55130326     0.25500
C3265       C  0.26303973  0.03875280  0.54707043    -0.18300
C3266       C  0.26291409  0.02957055  0.53827020    -0.07200
C3267       C  0.25235206  0.05340167  0.56014288    -0.13600
C3268       C  0.25283577  0.06165717  0.56735965    -0.13400
C3269       C  0.25389933  0.07169245  0.57572490     0.25400
C3270       C  0.25831347  0.08289225  0.57162853    -0.18800
C3271       C  0.25980348  0.09253042  0.57976803    -0.07200
C3272       C  0.25692323  0.09107416  0.59210612    -0.03300
C3273       C  0.25232205  0.07989328  0.59615543    -0.08600
C3274       C  0.25083160  0.07023774  0.58799871    -0.16300
H3275       H  0.23233852  0.02708460  0.53448446     0.11900
H3276       H  0.23264634  0.04317168  0.54993723     0.11200
H3277       H  0.27163449  0.04204205  0.55050602     0.11100
H3278       H  0.27145877  0.02595912  0.53506851     0.11600
H3279       H  0.26073467  0.08413085  0.56216983     0.11700
H3280       H  0.26340641  0.10108090  0.57651912     0.11700
H3281       H  0.24999641  0.07865759  0.60563069     0.11800
H3282       H  0.24740158  0.06162117  0.59127743     0.10600
C3283       C  0.26888564  0.08207088  0.39051606    -0.03200
C3284       C  0.27772233  0.07685661  0.39809687    -0.09000
C3285       C  0.28469113  0.06707674  0.39398083    -0.16600
C3286       C  0.28293382  0.06251202  0.38223926     0.25500
C3287       C  0.27419667  0.06771128  0.37464373    -0.18300
C3288       C  0.26723692  0.07745683  0.37873968    -0.07200
C3289       C  0.29025059  0.05274172  0.37769174    -0.13600
C3290       C  0.29589507  0.04490818  0.37258360    -0.13400
C3291       C  0.30183425  0.03613258  0.36499767     0.25400
C3292       C  0.29567453  0.03147244  0.35492059    -0.18800
C3293       C  0.30151530  0.02354062  0.34697285    -0.07200
C3294       C  0.31361607  0.02013154  0.34901961    -0.03300
C3295       C  0.31971006  0.02470123  0.35927861    -0.08600
C3296       C  0.31384544  0.03271495  0.36721011    -0.16300
H3297       H  0.27938378  0.08045992  0.40709749     0.11900
H3298       H  0.29151576  0.06317797  0.39988325     0.11200
H3299       H  0.27281175  0.06426991  0.36551853     0.11100
H3300       H  0.26049735  0.08134572  0.37273744     0.11600
H3301       H  0.28638551  0.03409493  0.35311754     0.11700
H3302       H  0.29654566  0.02008015  0.33922057     0.11700
H3303       H  0.32901507  0.02218101  0.36109640     0.11800
H3304       H  0.31870058  0.03633314  0.37496761     0.10600
C3305       C  0.24249678  0.10907627  0.41542447    -0.03200
C3306       C  0.24315658  0.12135546  0.41879550    -0.09000
C3307       C  0.23604108  0.12576025  0.42831346    -0.16600
C3308       C  0.22815928  0.11794563  0.43448239     0.25500
C3309       C  0.22723841  0.10576785  0.43098675    -0.18300
C3310       C  0.23430991  0.10136701  0.42143920    -0.07200
C3311       C  0.22099984  0.12249171  0.44435528    -0.13600
C3312       C  0.21516815  0.12689315  0.45246503    -0.13400
C3313       C  0.20841993  0.13308749  0.46171215     0.25400
C3314       C  0.19806435  0.12777935  0.46676205    -0.18800
C3315       C  0.19113192  0.13423822  0.47520744    -0.07200
C3316       C  0.19451746  0.14606879  0.47865029    -0.03300
C3317       C  0.20509737  0.15118884  0.47372269    -0.08600
C3318       C  0.21198299  0.14473651  0.46529050    -0.16300
H3319       H  0.24932506  0.12747312  0.41420426     0.11900
H3320       H  0.23673811  0.13523126  0.43091191     0.11200
H3321       H  0.22105409  0.09969180  0.43562009     0.11100
H3322       H  0.23332234  0.09196854  0.41872401     0.11600
H3323       H  0.19525222  0.11874950  0.46403489     0.11700
H3324       H  0.18306639  0.13004868  0.47891563     0.11700
H3325       H  0.20795739  0.16026242  0.47622931     0.11800
H3326       H  0.21998685  0.14891192  0.46141547     0.10600
C3327       C  0.25664138  0.08511552  0.41556066    -0.03200
C3328       C  0.25274222  0.07309486  0.41388700    -0.09000
C3329       C  0.25258281  0.06501059  0.42367967    -0.16600
C3330       C  0.25631022  0.06888075  0.43522181     0.25500
C3331       C  0.26034416  0.08082375  0.43690183    -0.18300
C3332       C  0.26052209  0.08890155  0.42711123    -0.07200
C3333       C  0.25581600  0.06064936  0.44536248    -0.13600
C3334       C  0.25525725  0.05364751  0.45376371    -0.13400
C3335       C  0.25452392  0.04503089  0.46356565     0.25400
C3336       C  0.24328180  0.04032272  0.46707747    -0.18800
C3337       C  0.24260645  0.03156281  0.47625215    -0.07200
C3338       C  0.25319476  0.02736887  0.48199220    -0.03300
C3339       C  0.26443310  0.03230075  0.47853659    -0.08600
C3340       C  0.26508093  0.04108247  0.46938630    -0.16300
H3341       H  0.24963309  0.07008069  0.40505353     0.11900
H3342       H  0.24943342  0.05579166  0.42228406     0.11200
H3343       H  0.26325295  0.08391249  0.44578678     0.11100
H3344       H  0.26356536  0.09814692  0.42852125     0.11600
H3345       H  0.23505277  0.04331256  0.46262285     0.11700
H3346       H  0.23382779  0.02792758  0.47870182     0.11700
H3347       H  0.27273883  0.02927868  0.48280908     0.11800
H3348       H  0.27382844  0.04467521  0.46674549     0.10600
C3349       C  0.31250397  0.97042668  0.64858873    -0.03200
C3350       C  0.30214067  0.96583603  0.65440783    -0.09000
C3351       C  0.29457490  0.95763694  0.64842406    -0.16600
C3352       C  0.29725314  0.95395218  0.63656655     0.25500
C3353       C  0.30749956  0.95851425  0.63065298    -0.18300
C3354       C  0.31510585  0.96671938  0.63663468    -0.07200
C3355       C  0.28958241  0.94525473  0.63066888    -0.13600
C3356       C  0.28292789  0.93768616  0.62648706    -0.13400
C3357       C  0.27479473  0.92841870  0.62234556     0.25400
C3358       C  0.26367909  0.93161376  0.61715449    -0.18800
C3359       C  0.25554236  0.92257263  0.61361848    -0.07200
C3360       C  0.25850633  0.91026361  0.61518153    -0.03300
C3361       C  0.26962753  0.90712530  0.62048985    -0.08600
C3362       C  0.27776254  0.91617507  0.62401666    -0.16300
H3363       H  0.29989906  0.96853961  0.66359995     0.11900
H3364       H  0.28666649  0.95411901  0.65307047     0.11200
H3365       H  0.30963771  0.95568560  0.62146835     0.11100
H3366       H  0.32300236  0.97015052  0.63191835     0.11600
H3367       H  0.26124617  0.94107695  0.61598166     0.11700
H3368       H  0.24687364  0.92519473  0.60984456     0.11700
H3369       H  0.27203159  0.89768029  0.62182811     0.11800
H3370       H  0.28631077  0.91363553  0.62813195     0.10600
C3371       C  0.18274580  0.84753828  0.52755144    -0.03200
C3372       C  0.19438734  0.84405545  0.53138821    -0.09000
C3373       C  0.20009525  0.85018120  0.54090709    -0.16600
C3374       C  0.19424420  0.85983093  0.54672500     0.25500
C3375       C  0.18264166  0.86334738  0.54301632    -0.18300
C3376       C  0.17691361  0.85724251  0.53346283    -0.07200
C3377       C  0.20027227  0.86613893  0.55641329    -0.13600
C3378       C  0.20591222  0.87107697  0.56436593    -0.13400
C3379       C  0.21329345  0.87649224  0.57364057     0.25400
C3380       C  0.20916457  0.87701545  0.58564806    -0.18800
C3381       C  0.21663356  0.88173955  0.59474755    -0.07200
C3382       C  0.22826616  0.88604321  0.59189567    -0.03300
C3383       C  0.23234010  0.88549157  0.57981944    -0.08600
C3384       C  0.22486520  0.88077647  0.57073369    -0.16300
H3385       H  0.19911080  0.83662903  0.52700557     0.11900
H3386       H  0.20908812  0.84740823  0.54371241     0.11200
H3387       H  0.17804643  0.87081413  0.54747795     0.11100
H3388       H  0.16793758  0.86010145  0.53071741     0.11600
H3389       H  0.20024751  0.87364574  0.58799384     0.11700
H3390       H  0.21334701  0.88202180  0.60401650     0.11700
H3391       H  0.24139839  0.88840404  0.57745033     0.11800
H3392       H  0.22818726  0.88027450  0.56148227     0.10600
C3393       C  0.24468905  0.90878223  0.59105071    -0.03200
C3394       C  0.25604382  0.91146342  0.58595888    -0.09000
C3395       C  0.25706598  0.92012863  0.57672271    -0.16600
C3396       C  0.24674080  0.92617260  0.57246558     0.25500
C3397       C  0.23537853  0.92341628  0.57741012    -0.18300
C3398       C  0.23435516  0.91476287  0.58665338    -0.07200
C3399       C  0.24780473  0.93540298  0.56324302    -0.13600
C3400       C  0.24849218  0.94337258  0.55574557    -0.13400
C3401       C  0.24906733  0.95314495  0.54705016     0.25400
C3402       C  0.23839244  0.95791600  0.54211691    -0.18800
C3403       C  0.23888875  0.96760985  0.53391432    -0.07200
C3404       C  0.25009278  0.97266282  0.53052281    -0.03300
C3405       C  0.26078392  0.96775101  0.53546049    -0.08600
C3406       C  0.26026268  0.95806953  0.54368129    -0.16300
H3407       H  0.26409314  0.90689461  0.58922353     0.11900
H3408       H  0.26590475  0.92218519  0.57297965     0.11200
H3409       H  0.22733345  0.92805439  0.57421471     0.11100
H3410       H  0.22555301  0.91286236  0.59054433     0.11600
H3411       H  0.22967448  0.95418334  0.54465979     0.11700
H3412       H  0.23050428  0.97115014  0.53023823     0.11700
H3413       H  0.26954902  0.97142358  0.53301671     0.11800
H3414       H  0.26858571  0.95446621  0.54745026     0.10600
C3415       C  0.25998314  0.91520659  0.38973402    -0.03200
C3416       C  0.27004563  0.91116684  0.38305725    -0.09000
C3417       C  0.27791071  0.91950625  0.37769685    -0.16600
C3418       C  0.27578726  0.93196608  0.37893362     0.25500
C3419       C  0.26585696  0.93608779  0.38566729    -0.18300
C3420       C  0.25793915  0.92774650  0.39099062    -0.07200
C3421       C  0.28342286  0.94045425  0.37269701    -0.13600
C3422       C  0.28961629  0.94729142  0.36686956    -0.13400
C3423       C  0.29677444  0.95522535  0.35944132     0.25400
C3424       C  0.30843295  0.95854537  0.36312466    -0.18800
C3425       C  0.31536178  0.96631547  0.35590246    -0.07200
C3426       C  0.31068024  0.97086137  0.34491309    -0.03300
C3427       C  0.29899227  0.96737324  0.34123121    -0.08600
C3428       C  0.29208755  0.95958611  0.34846420    -0.16300
H3429       H  0.27176089  0.90154668  0.38190711     0.11900
H3430       H  0.28552955  0.91623803  0.37242367     0.11200
H3431       H  0.26406895  0.94572642  0.38654430     0.11100
H3432       H  0.25003420  0.93111387  0.39572053     0.11600
H3433       H  0.31213629  0.95518956  0.37160341     0.11700
H3434       H  0.32430755  0.96889733  0.35900788     0.11700
H3435       H  0.29513457  0.97076821  0.33284533     0.11800
H3436       H  0.28306888  0.95702764  0.34553613     0.10600
C3437       C  0.23043270  0.89365567  0.41628066    -0.03200
C3438       C  0.21835733  0.89015344  0.41444374    -0.09000
C3439       C  0.21141048  0.88599543  0.42417379    -0.16600
C3440       C  0.21652110  0.88520386  0.43578074     0.25500
C3441       C  0.22851618  0.88882669  0.43771277    -0.18300
C3442       C  0.23545649  0.89305897  0.42799148    -0.07200
C3443       C  0.20972770  0.87976071  0.44543459    -0.13600
C3444       C  0.20408932  0.87423003  0.45295348    -0.13400
C3445       C  0.19753202  0.86667924  0.46125968     0.25400
C3446       C  0.20303014  0.85625016  0.46596018    -0.18800
C3447       C  0.19654339  0.84854807  0.47362949    -0.07200
C3448       C  0.18447749  0.85122535  0.47669561    -0.03300
C3449       C  0.17903071  0.86175400  0.47196010    -0.08600
C3450       C  0.18553167  0.86942628  0.46424502    -0.16300
H3451       H  0.21436162  0.89052477  0.40545843     0.11900
H3452       H  0.20215861  0.88311603  0.42259336     0.11200
H3453       H  0.23258368  0.88808958  0.44664610     0.11100
H3454       H  0.24483760  0.89547616  0.42953372     0.11600
H3455       H  0.21230464  0.85403123  0.46363137     0.11700
H3456       H  0.20098751  0.84053565  0.47719362     0.11700
H3457       H  0.16975106  0.86403182  0.47417907     0.11800
H3458       H  0.18118917  0.87744651  0.46056175     0.10600
C3459       C  0.24681696  0.91607719  0.41464065    -0.03200
C3460       C  0.25825534  0.91891551  0.41944803    -0.09000
C3461       C  0.25941900  0.92787348  0.42841134    -0.16600
C3462       C  0.24915709  0.93406596  0.43263175     0.25500
C3463       C  0.23774068  0.93125489  0.42785298    -0.18300
C3464       C  0.23657536  0.92230938  0.41891330    -0.07200
C3465       C  0.25025338  0.94320557  0.44195135    -0.13600
C3466       C  0.25076641  0.95076108  0.44988859    -0.13400
C3467       C  0.25098217  0.95959432  0.45956151     0.25400
C3468       C  0.24011418  0.96432977  0.46408042    -0.18800
C3469       C  0.24025084  0.97265892  0.47368507    -0.07200
C3470       C  0.25128214  0.97636708  0.47891451    -0.03300
C3471       C  0.26216995  0.97164291  0.47424298    -0.08600
C3472       C  0.26200926  0.96330598  0.46463415    -0.16300
H3473       H  0.26622592  0.91413771  0.41629192     0.11900
H3474       H  0.26829415  0.92994358  0.43206732     0.11200
H3475       H  0.22973803  0.93597127  0.43104634     0.11100
H3476       H  0.22770431  0.92026642  0.41525016     0.11600
H3477       H  0.23152320  0.96152759  0.46022713     0.11700
H3478       H  0.23171821  0.97615558  0.47704349     0.11700
H3479       H  0.27080752  0.97434444  0.47804639     0.11800
H3480       H  0.27047879  0.95970387  0.46121234     0.10600
C3481       C  0.08668920  0.74063904  0.61784563    -0.03200
C3482       C  0.08873664  0.73017725  0.62483119    -0.09000
C3483       C  0.07907100  0.72417405  0.63032988    -0.16600
C3484       C  0.06729372  0.72862809  0.62896533     0.25500
C3485       C  0.06516437  0.73906322  0.62203446    -0.18300
C3486       C  0.07483975  0.74508434  0.61651795    -0.07200
C3487       C  0.05744455  0.72244261  0.63472709    -0.13600
C3488       C  0.04948223  0.71680303  0.63956720    -0.13400
C3489       C  0.04026857  0.70952594  0.64511041     0.25400
C3490       C  0.03561539  0.69951212  0.63884736    -0.18800
C3491       C  0.02678003  0.69224961  0.64423344    -0.07200
C3492       C  0.02247857  0.69495888  0.65595024    -0.03300
C3493       C  0.02719917  0.70505512  0.66218827    -0.08600
C3494       C  0.03608782  0.71229048  0.65678850    -0.16300
H3495       H  0.09781600  0.72664067  0.62599695     0.11900
H3496       H  0.08078357  0.71609313  0.63568136     0.11200
H3497       H  0.05606353  0.74259228  0.62098899     0.11100
H3498       H  0.07309217  0.75332490  0.61145173     0.11600
H3499       H  0.03883501  0.69730478  0.62980945     0.11700
H3500       H  0.02327749  0.68455479  0.63919948     0.11700
H3501       H  0.02405916  0.70732669  0.67123050     0.11800
H3502       H  0.03970034  0.72001334  0.66170986     0.10600
C3503       C  0.14915260  0.80862332  0.52398168    -0.03200
C3504       C  0.15515614  0.79875346  0.52939478    -0.09000
C3505       C  0.14917981  0.79148548  0.53785400    -0.16600
C3506       C  0.13715128  0.79396965  0.54091985     0.25500
C3507       C  0.13106112  0.80369884  0.53550911    -0.18300
C3508       C  0.13703607  0.81101644  0.52707620    -0.07200
C3509       C  0.13128196  0.78688966  0.55007432    -0.13600
C3510       C  0.12683580  0.78134940  0.55833184    -0.13400
C3511       C  0.12210358  0.77531531  0.56880318     0.25400
C3512       C  0.12294249  0.78095439  0.58016598    -0.18800
C3513       C  0.11853665  0.77509072  0.59047755    -0.07200
C3514       C  0.11317196  0.76359309  0.58946136    -0.03300
C3515       C  0.11247465  0.75790892  0.57805126    -0.08600
C3516       C  0.11690369  0.76377998  0.56773574    -0.16300
H3517       H  0.16450270  0.79673594  0.52720221     0.11900
H3518       H  0.15397146  0.78401484  0.54209472     0.11200
H3519       H  0.12175707  0.80570425  0.53790809     0.11100
H3520       H  0.13219678  0.81854497  0.52301005     0.11600
H3521       H  0.12701858  0.78986754  0.58104946     0.11700
H3522       H  0.11917668  0.77957285  0.59922141     0.11700
H3523       H  0.10860997  0.74891296  0.57714531     0.11800
H3524       H  0.11633217  0.75932059  0.55897239     0.10600
C3525       C  0.08835051  0.75147983  0.59192691    -0.03200
C3526       C  0.08371804  0.74024598  0.58805030    -0.09000
C3527       C  0.07528715  0.73971877  0.57855847    -0.16600
C3528       C  0.07141008  0.75041633  0.57285692     0.25500
C3529       C  0.07590201  0.76164896  0.57678921    -0.18300
C3530       C  0.08430503  0.76218052  0.58628365    -0.07200
C3531       C  0.06288228  0.74989303  0.56294292    -0.13600
C3532       C  0.05571784  0.74956990  0.55465734    -0.13400
C3533       C  0.04704385  0.74922566  0.54486407     0.25400
C3534       C  0.04388587  0.75991374  0.53873888    -0.18800
C3535       C  0.03528746  0.75961710  0.52939317    -0.07200
C3536       C  0.02975044  0.74860109  0.52603192    -0.03300
C3537       C  0.03305046  0.73789317  0.53217786    -0.08600
C3538       C  0.04162473  0.73821785  0.54153678    -0.16300
H3539       H  0.08680583  0.73190846  0.59224302     0.11900
H3540       H  0.07187497  0.73097474  0.57559951     0.11200
H3541       H  0.07295940  0.76998700  0.57247493     0.11100
H3542       H  0.08774982  0.77091971  0.58919599     0.11600
H3543       H  0.04802645  0.76848786  0.54122418     0.11700
H3544       H  0.03297082  0.76800453  0.52481090     0.11700
H3545       H  0.02895367  0.72927209  0.52980713     0.11800
H3546       H  0.04398927  0.72988809  0.54621087     0.10600
C3547       C  0.09103221  0.72996063  0.38729335    -0.03200
C3548       C  0.07889240  0.73353893  0.38869964    -0.09000
C3549       C  0.06952873  0.72614547  0.38441613    -0.16600
C3550       C  0.07220929  0.71516118  0.37860655     0.25500
C3551       C  0.08427315  0.71155987  0.37713669    -0.18300
C3552       C  0.09364242  0.71893948  0.38142229    -0.07200
C3553       C  0.06263187  0.70777436  0.37375953    -0.13600
C3554       C  0.05482048  0.70161411  0.36924738    -0.13400
C3555       C  0.04577766  0.69431271  0.36335093     0.25400
C3556       C  0.04319849  0.68263332  0.36764363    -0.18800
C3557       C  0.03463016  0.67542496  0.36168285    -0.07200
C3558       C  0.02861583  0.67981194  0.35130792    -0.03300
C3559       C  0.03123979  0.69157586  0.34708989    -0.08600
C3560       C  0.03975568  0.69878646  0.35310130    -0.16300
H3561       H  0.07664116  0.74217096  0.39283008     0.11900
H3562       H  0.06022072  0.72907776  0.38547061     0.11200
H3563       H  0.08643758  0.70310593  0.37258046     0.11100
H3564       H  0.10293241  0.71604588  0.38016561     0.11600
H3565       H  0.04784895  0.67908085  0.37555221     0.11700
H3566       H  0.03278984  0.66639650  0.36512424     0.11700
H3567       H  0.02668713  0.69521912  0.33917132     0.11800
H3568       H  0.04169971  0.70781839  0.34971045     0.10600
C3569       C  0.11560689  0.75960374  0.41115096    -0.03200
C3570       C  0.11539159  0.75608772  0.42342308    -0.09000
C3571       C  0.11921074  0.76413501  0.43246845    -0.16600
C3572       C  0.12338370  0.77572052  0.42932763     0.25500
C3573       C  0.12374241  0.77923509  0.41711310    -0.18300
C3574       C  0.11990600  0.77120158  0.40806057    -0.07200
C3575       C  0.12781287  0.78378820  0.43858334    -0.13600
C3576       C  0.13214531  0.79022362  0.44629639    -0.13400
C3577       C  0.13811845  0.79737964  0.45542894     0.25400
C3578       C  0.13294107  0.80819971  0.45963086    -0.18800
C3579       C  0.13888827  0.81510295  0.46849115    -0.07200
C3580       C  0.15009002  0.81124287  0.47321290    -0.03300
C3581       C  0.15520622  0.80036643  0.46890436    -0.08600
C3582       C  0.14924858  0.79349016  0.46007682    -0.16300
H3583       H  0.11242431  0.74708000  0.42600596     0.11900
H3584       H  0.11904607  0.76127398  0.44188780     0.11200
H3585       H  0.12705527  0.78814785  0.41458556     0.11100
H3586       H  0.12018866  0.77407242  0.39865179     0.11600
H3587       H  0.12432142  0.81128474  0.45607889     0.11700
H3588       H  0.13470923  0.82341598  0.47167119     0.11700
H3589       H  0.16378456  0.79712414  0.47240251     0.11800
H3590       H  0.15332378  0.78512336  0.45688022     0.10600
C3591       C  0.09253854  0.74400355  0.41150580    -0.03200
C3592       C  0.08958793  0.73291466  0.41705962    -0.09000
C3593       C  0.08134647  0.73259446  0.42669489    -0.16600
C3594       C  0.07599307  0.74335923  0.43083553     0.25500
C3595       C  0.07883933  0.75442627  0.42525856    -0.18300
C3596       C  0.08706227  0.75474715  0.41562405    -0.07200
C3597       C  0.06745723  0.74308618  0.44069155    -0.13600
C3598       C  0.06003575  0.74323822  0.44871147    -0.13400
C3599       C  0.05078031  0.74389643  0.45787154     0.25400
C3600       C  0.04654915  0.75523189  0.46174635    -0.18800
C3601       C  0.03714097  0.75595473  0.47019667    -0.07200
C3602       C  0.03183717  0.74532492  0.47488043    -0.03300
C3603       C  0.03626978  0.73396134  0.47107329    -0.08600
C3604       C  0.04568208  0.73326219  0.46260067    -0.16300
H3605       H  0.09378290  0.72456848  0.41399681     0.11900
H3606       H  0.07917608  0.72398113  0.43092671     0.11200
H3607       H  0.07470315  0.76279750  0.42835769     0.11100
H3608       H  0.08920068  0.76335038  0.41137090     0.11600
H3609       H  0.05043433  0.76351723  0.45813418     0.11700
H3610       H  0.03397568  0.76483391  0.47300354     0.11700
H3611       H  0.03240441  0.72562182  0.47456227     0.11800
H3612       H  0.04889135  0.72444103  0.45964722     0.10600
C3613       C  0.91230565  0.74098016  0.60808861    -0.03200
C3614       C  0.91440456  0.74266770  0.62057668    -0.09000
C3615       C  0.92335609  0.73595847  0.62652600    -0.16600
C3616       C  0.93024467  0.72746267  0.62008352     0.25500
C3617       C  0.92824309  0.72575900  0.60763503    -0.18300
C3618       C  0.91927150  0.73243504  0.60168387    -0.07200
C3619       C  0.93909406  0.72021023  0.62630989    -0.13600
C3620       C  0.94631800  0.71406269  0.63172111    -0.13400
C3621       C  0.95481887  0.70685894  0.63847204     0.25400
C3622       C  0.95725991  0.70972763  0.65060738    -0.18800
C3623       C  0.96563319  0.70287868  0.65718793    -0.07200
C3624       C  0.97165652  0.69304081  0.65170538    -0.03300
C3625       C  0.96905532  0.69013172  0.63953465    -0.08600
C3626       C  0.96068530  0.69702883  0.63295106    -0.16300
H3627       H  0.90908474  0.74912753  0.62570437     0.11900
H3628       H  0.92480744  0.73730486  0.63619448     0.11200
H3629       H  0.93345270  0.71912745  0.60260556     0.11100
H3630       H  0.91756694  0.73064018  0.59214347     0.11600
H3631       H  0.95273421  0.71729792  0.65496728     0.11700
H3632       H  0.96741477  0.70531374  0.66655740     0.11700
H3633       H  0.97356134  0.68261329  0.63507983     0.11800
H3634       H  0.95883070  0.69473287  0.62355604     0.10600
C3635       C  0.88705906  0.76236143  0.57704668    -0.03200
C3636       C  0.87554798  0.75965251  0.57231030    -0.09000
C3637       C  0.87115559  0.76584408  0.56215446    -0.16600
C3638       C  0.87820432  0.77483462  0.55662630     0.25500
C3639       C  0.88974623  0.77749103  0.56117684    -0.18300
C3640       C  0.89414004  0.77132699  0.57137381    -0.07200
C3641       C  0.87325609  0.78182777  0.54678558    -0.13600
C3642       C  0.86859820  0.78800591  0.53906008    -0.13400
C3643       C  0.86252982  0.79564435  0.53040176     0.25400
C3644       C  0.86831776  0.80597283  0.52579540    -0.18800
C3645       C  0.86224148  0.81362144  0.51769078    -0.07200
C3646       C  0.85027959  0.81103003  0.51414951    -0.03300
C3647       C  0.84455368  0.80060710  0.51881149    -0.08600
C3648       C  0.85065150  0.79296856  0.52688409    -0.16300
H3649       H  0.86990715  0.75280457  0.57653893     0.11900
H3650       H  0.86217808  0.76377436  0.55875083     0.11200
H3651       H  0.89521509  0.78453456  0.55703635     0.11100
H3652       H  0.90288381  0.77385588  0.57503111     0.11600
H3653       H  0.87750011  0.80814291  0.52851176     0.11700
H3654       H  0.86688854  0.82155699  0.51421989     0.11700
H3655       H  0.83537114  0.79833104  0.51619997     0.11800
H3656       H  0.84607981  0.78501426  0.53043165     0.10600
C3657       C  0.91287401  0.75275730  0.58269902    -0.03200
C3658       C  0.92381142  0.75793994  0.58666337    -0.09000
C3659       C  0.93393639  0.75808307  0.57902708    -0.16600
C3660       C  0.93319280  0.75304680  0.56735448     0.25500
C3661       C  0.92228996  0.74792257  0.56334997    -0.18300
C3662       C  0.91218226  0.74776573  0.57098129    -0.07200
C3663       C  0.94357361  0.75302777  0.55944581    -0.13600
C3664       C  0.95186381  0.75265264  0.55232608    -0.13400
C3665       C  0.96124745  0.75183295  0.54328561     0.25400
C3666       C  0.96562094  0.74044761  0.53970446    -0.18800
C3667       C  0.97433389  0.73956510  0.53053020    -0.07200
C3668       C  0.97878910  0.75008162  0.52481327    -0.03300
C3669       C  0.97441372  0.76149680  0.52854316    -0.08600
C3670       C  0.96568585  0.76235470  0.53771225    -0.16300
H3671       H  0.92447407  0.76184300  0.59568545     0.11900
H3672       H  0.94231634  0.76206935  0.58221728     0.11200
H3673       H  0.92162387  0.74398401  0.55434640     0.11100
H3674       H  0.90385137  0.74363995  0.56783647     0.11600
H3675       H  0.96222354  0.73224184  0.54393631     0.11700
H3676       H  0.97757170  0.73065473  0.52791158     0.11700
H3677       H  0.97770253  0.76976136  0.52435166     0.11800
H3678       H  0.96233497  0.77121197  0.54038590     0.10600
C3679       C  0.97806773  0.67974519  0.35018287    -0.03200
C3680       C  0.97392664  0.67683889  0.36190181    -0.09000
C3681       C  0.96540845  0.68421014  0.36766040    -0.16600
C3682       C  0.96095713  0.69453751  0.36177594     0.25500
C3683       C  0.96499145  0.69750016  0.35010929    -0.18300
C3684       C  0.97352074  0.69014467  0.34432860    -0.07200
C3685       C  0.95203112  0.70190563  0.36764260    -0.13600
C3686       C  0.94422133  0.70757187  0.37268537    -0.13400
C3687       C  0.93447846  0.71363426  0.37873019     0.25400
C3688       C  0.92594003  0.72010580  0.37194812    -0.18800
C3689       C  0.91605376  0.72542971  0.37775206    -0.07200
C3690       C  0.91466132  0.72435144  0.39038844    -0.03300
C3691       C  0.92325628  0.71781122  0.39713699    -0.08600
C3692       C  0.93317041  0.71252851  0.39132419    -0.16300
H3693       H  0.97729347  0.66890384  0.36663317     0.11900
H3694       H  0.96227657  0.68184652  0.37668678     0.11200
H3695       H  0.96153481  0.70546730  0.34548436     0.11100
H3696       H  0.97656803  0.69260845  0.33530767     0.11600
H3697       H  0.92684525  0.72090477  0.36217571     0.11700
H3698       H  0.90947506  0.73037589  0.37238235     0.11700
H3699       H  0.92216836  0.71653925  0.40682688     0.11800
H3700       H  0.93967797  0.70738770  0.39660464     0.10600
C3701       C  0.84630508  0.80857020  0.46501486    -0.03200
C3702       C  0.85694538  0.81144846  0.45861917    -0.09000
C3703       C  0.86302836  0.80251800  0.45201767    -0.16600
C3704       C  0.85855364  0.79064333  0.45177006     0.25500
C3705       C  0.84772311  0.78779674  0.45770817    -0.18300
C3706       C  0.84158846  0.79673137  0.46427869    -0.07200
C3707       C  0.86527268  0.78130555  0.44572815    -0.13600
C3708       C  0.87084462  0.77346324  0.44059859    -0.13400
C3709       C  0.87698478  0.76418435  0.43388722     0.25400
C3710       C  0.87139730  0.75291296  0.43217090    -0.18800
C3711       C  0.87663885  0.74434773  0.42445709    -0.07200
C3712       C  0.88755377  0.74696918  0.41848667    -0.03300
C3713       C  0.89336188  0.75811957  0.42061340    -0.08600
C3714       C  0.88807823  0.76670747  0.42829378    -0.16300
H3715       H  0.86076189  0.82050447  0.45901694     0.11900
H3716       H  0.87137566  0.80479796  0.44737219     0.11200
H3717       H  0.84418816  0.77861440  0.45750918     0.11100
H3718       H  0.83344855  0.79425561  0.46917457     0.11600
H3719       H  0.86278821  0.75091715  0.43645048     0.11700
H3720       H  0.87201164  0.73581471  0.42286503     0.11700
H3721       H  0.90162491  0.76044467  0.41586089     0.11800
H3722       H  0.89240425  0.77546188  0.42951081     0.10600
C3723       C  0.91389398  0.73846006  0.41473748    -0.03200
C3724       C  0.91350197  0.73502250  0.42701252    -0.09000
C3725       C  0.92348919  0.73698380  0.43457921    -0.16600
C3726       C  0.93398806  0.74245413  0.42999136     0.25500
C3727       C  0.93437778  0.74608303  0.41778477    -0.18300
C3728       C  0.92437074  0.74410878  0.41019456    -0.07200
C3729       C  0.94435208  0.74410047  0.43783509    -0.13600
C3730       C  0.95269199  0.74499528  0.44490085    -0.13400
C3731       C  0.96222494  0.74555312  0.45388047     0.25400
C3732       C  0.96705132  0.73480895  0.45866596    -0.18800
C3733       C  0.97584810  0.73526358  0.46781890    -0.07200
C3734       C  0.97996740  0.74649477  0.47233642    -0.03300
C3735       C  0.97520399  0.75725693  0.46734805    -0.08600
C3736       C  0.96637981  0.75677882  0.45820200    -0.16300
H3737       H  0.90552615  0.73060667  0.43064642     0.11900
H3738       H  0.92306608  0.73412256  0.44398873     0.11200
H3739       H  0.94243050  0.75034148  0.41411963     0.11100
H3740       H  0.92479556  0.74688842  0.40076867     0.11600
H3741       H  0.96390902  0.72606251  0.45542155     0.11700
H3742       H  0.97935787  0.72681433  0.47141921     0.11700
H3743       H  0.97819440  0.76604437  0.47060658     0.11800
H3744       H  0.96270427  0.76516250  0.45460158     0.10600
C3745       C  0.72804900  0.09124273  0.61239033    -0.03200
C3746       C  0.72040001  0.08380125  0.60539736    -0.09000
C3747       C  0.71550625  0.07320466  0.61037681    -0.16600
C3748       C  0.71813960  0.07002001  0.62240371     0.25500
C3749       C  0.72558915  0.07749502  0.62947022    -0.18300
C3750       C  0.73048942  0.08807353  0.62450493    -0.07200
C3751       C  0.71308306  0.05919425  0.62760924    -0.13600
C3752       C  0.70881657  0.05034021  0.63238280    -0.13400
C3753       C  0.70354412  0.04010830  0.63849569     0.25400
C3754       C  0.70819694  0.03629270  0.64969096    -0.18800
C3755       C  0.70275714  0.02666541  0.65590449    -0.07200
C3756       C  0.69256824  0.02077739  0.65098555    -0.03300
C3757       C  0.68805055  0.02458685  0.63965564    -0.08600
C3758       C  0.69351576  0.03420030  0.63345493    -0.16300
H3759       H  0.71812728  0.08622348  0.59614168     0.11900
H3760       H  0.70964562  0.06753123  0.60487564     0.11200
H3761       H  0.72762465  0.07513419  0.63880861     0.11100
H3762       H  0.73633631  0.09369338  0.63006923     0.11600
H3763       H  0.71595387  0.04083277  0.65366866     0.11700
H3764       H  0.70645501  0.02390850  0.66459246     0.11700
H3765       H  0.68025446  0.02018706  0.63561250     0.11800
H3766       H  0.68984928  0.03710047  0.62479384     0.10600
C3767       C  0.80124018  0.15326720  0.52209854    -0.03200
C3768       C  0.79097490  0.15941973  0.52650881    -0.09000
C3769       C  0.78343304  0.15396695  0.53507672    -0.16600
C3770       C  0.78602221  0.14229936  0.53933514     0.25500
C3771       C  0.79615880  0.13603974  0.53495288    -0.18300
C3772       C  0.80374889  0.14149527  0.52636564    -0.07200
C3773       C  0.77840221  0.13695532  0.54843548    -0.13600
C3774       C  0.77201735  0.13293856  0.55632405    -0.13400
C3775       C  0.76459769  0.12837563  0.56599716     0.25400
C3776       C  0.76707926  0.11698502  0.57102117    -0.18800
C3777       C  0.76003922  0.11260457  0.58058357    -0.07200
C3778       C  0.75034366  0.11951692  0.58511665    -0.03300
C3779       C  0.74800685  0.13102562  0.58016464    -0.08600
C3780       C  0.75508593  0.13542010  0.57060027    -0.16300
H3781       H  0.78879047  0.16848660  0.52338689     0.11900
H3782       H  0.77562075  0.15888618  0.53843862     0.11200
H3783       H  0.79823167  0.12699405  0.53822557     0.11100
H3784       H  0.81156310  0.13653365  0.52309516     0.11600
H3785       H  0.77451349  0.11153636  0.56761460     0.11700
H3786       H  0.76226914  0.10388150  0.58452467     0.11700
H3787       H  0.74063823  0.13652971  0.58361094     0.11800
H3788       H  0.75316360  0.14429781  0.56681571     0.10600
C3789       C  0.75325458  0.03381550  0.52379220    -0.03200
C3790       C  0.76304436  0.04070399  0.52821344    -0.09000
C3791       C  0.76123276  0.04940726  0.53732675    -0.16600
C3792       C  0.74963947  0.05130076  0.54213784     0.25500
C3793       C  0.73986357  0.04449423  0.53777633    -0.18300
C3794       C  0.74164251  0.03582640  0.52867056    -0.07200
C3795       C  0.74771872  0.06017210  0.55157328    -0.13600
C3796       C  0.74587405  0.06753529  0.55948498    -0.13400
C3797       C  0.74362820  0.07636336  0.56888482     0.25400
C3798       C  0.73768564  0.08724721  0.56609261    -0.18800
C3799       C  0.73580835  0.09597139  0.57513063    -0.07200
C3800       C  0.73986510  0.09390658  0.58704798    -0.03300
C3801       C  0.74565858  0.08290928  0.58984951    -0.08600
C3802       C  0.74752332  0.07417301  0.58080436    -0.16300
H3803       H  0.77208123  0.03936721  0.52463798     0.11900
H3804       H  0.76886951  0.05463389  0.54063520     0.11200
H3805       H  0.73085606  0.04587088  0.54143047     0.11100
H3806       H  0.73391806  0.03065961  0.52548962     0.11600
H3807       H  0.73461832  0.08903885  0.55691335     0.11700
H3808       H  0.73133340  0.10441775  0.57284059     0.11700
H3809       H  0.74895020  0.08124123  0.59896513     0.11800
H3810       H  0.75213497  0.06578710  0.58306606     0.10600
C3811       C  0.67955420  0.02733123  0.34400162    -0.03200
C3812       C  0.69091073  0.03089227  0.33944952    -0.09000
C3813       C  0.69783773  0.03956237  0.34560003    -0.16600
C3814       C  0.69349898  0.04479119  0.35634294     0.25500
C3815       C  0.68215948  0.04139978  0.36087993    -0.18300
C3816       C  0.67522424  0.03270700  0.35475931    -0.07200
C3817       C  0.70068992  0.05367558  0.36263924    -0.13600
C3818       C  0.70690830  0.06125906  0.36747660    -0.13400
C3819       C  0.71448648  0.07060894  0.37250931     0.25400
C3820       C  0.71374074  0.07363502  0.38484902    -0.18800
C3821       C  0.72081888  0.08308682  0.38953270    -0.07200
C3822       C  0.72874794  0.08953747  0.38190768    -0.03300
C3823       C  0.72948260  0.08637680  0.36956354    -0.08600
C3824       C  0.72242064  0.07694728  0.36490483    -0.16300
H3825       H  0.69449798  0.02689200  0.33120996     0.11900
H3826       H  0.70659789  0.04215504  0.34200147     0.11200
H3827       H  0.67870420  0.04543141  0.36916756     0.11100
H3828       H  0.66651033  0.03015300  0.35847815     0.11600
H3829       H  0.70755286  0.06883604  0.39079030     0.11700
H3830       H  0.71982438  0.08556864  0.39899752     0.11700
H3831       H  0.73548899  0.09125807  0.36350781     0.11800
H3832       H  0.72304140  0.07469523  0.35533731     0.10600
C3833       C  0.80303740  0.15345414  0.47086531    -0.03200
C3834       C  0.80711475  0.14260159  0.46548908    -0.09000
C3835       C  0.80027261  0.13693343  0.45642547    -0.16600
C3836       C  0.78928259  0.14202388  0.45267628     0.25500
C3837       C  0.78515819  0.15280953  0.45797561    -0.18300
C3838       C  0.79199600  0.15851113  0.46700707    -0.07200
C3839       C  0.78221650  0.13623718  0.44337203    -0.13600
C3840       C  0.77607239  0.13170673  0.43555086    -0.13400
C3841       C  0.76851459  0.12671755  0.42617523     0.25400
C3842       C  0.75885461  0.13355282  0.42159687    -0.18800
C3843       C  0.75154276  0.12880990  0.41238940    -0.07200
C3844       C  0.75376510  0.11714090  0.40775207    -0.03300
C3845       C  0.76353216  0.11035556  0.41232131    -0.08600
C3846       C  0.77085228  0.11511633  0.42152673    -0.16300
H3847       H  0.81559187  0.13850818  0.46826759     0.11900
H3848       H  0.80354248  0.12859015  0.45235620     0.11200
H3849       H  0.77665400  0.15681171  0.45512620     0.11100
H3850       H  0.78861219  0.16683596  0.47100570     0.11600
H3851       H  0.75699904  0.14255574  0.42512085     0.11700
H3852       H  0.74409280  0.13420417  0.40894299     0.11700
H3853       H  0.76560395  0.10146621  0.40865949     0.11800
H3854       H  0.77836662  0.10979593  0.42495622     0.10600
C3855       C  0.74271728  0.09154631  0.40633895    -0.03200
C3856       C  0.74747289  0.08010838  0.40330580    -0.09000
C3857       C  0.74915324  0.07127817  0.41230283    -0.16600
C3858       C  0.74608786  0.07381360  0.42440087     0.25500
C3859       C  0.74120450  0.08515512  0.42742638    -0.18300
C3860       C  0.73950954  0.09396201  0.41844724    -0.07200
C3861       C  0.74801105  0.06487627  0.43377010    -0.13600
C3862       C  0.74946225  0.05766909  0.44190263    -0.13400
C3863       C  0.75092831  0.04925318  0.45182407     0.25400
C3864       C  0.74085778  0.04308277  0.45646134    -0.18800
C3865       C  0.74221280  0.03494555  0.46612313    -0.07200
C3866       C  0.75368403  0.03286109  0.47128539    -0.03300
C3867       C  0.76375550  0.03914542  0.46660433    -0.08600
C3868       C  0.76237450  0.04729152  0.45694041    -0.16300
H3869       H  0.75006080  0.07813240  0.39402474     0.11900
H3870       H  0.75293503  0.06253373  0.40985060     0.11200
H3871       H  0.73877440  0.08721537  0.43674028     0.11100
H3872       H  0.73577750  0.10271500  0.42092229     0.11600
H3873       H  0.73195082  0.04454775  0.45259525     0.11700
H3874       H  0.73428986  0.03023677  0.46950144     0.11700
H3875       H  0.77270663  0.03773107  0.47037151     0.11800
H3876       H  0.77023243  0.05203968  0.45345014     0.10600
C3877       C  0.75452637  0.91698332  0.60918928    -0.03200
C3878       C  0.75666641  0.92955561  0.60959803    -0.09000
C3879       C  0.74801570  0.93736812  0.61459669    -0.16600
C3880       C  0.73718327  0.93267874  0.61925886     0.25500
C3881       C  0.73499030  0.92016683  0.61883914    -0.18300
C3882       C  0.74363424  0.91235267  0.61386999    -0.07200
C3883       C  0.72852907  0.94061606  0.62492791    -0.13600
C3884       C  0.72147619  0.94712423  0.63015865    -0.13400
C3885       C  0.71341559  0.95483022  0.63692766     0.25400
C3886       C  0.70213079  0.95808344  0.63213105    -0.18800
C3887       C  0.69438256  0.96566427  0.63874191    -0.07200
C3888       C  0.69785864  0.97007232  0.65023020    -0.03300
C3889       C  0.70918469  0.96667074  0.65499623    -0.08600
C3890       C  0.71689974  0.95910067  0.64838123    -0.16300
H3891       H  0.76511532  0.93329998  0.60630692     0.11900
H3892       H  0.74984793  0.94703139  0.61498826     0.11200
H3893       H  0.72666447  0.91644109  0.62247579     0.11100
H3894       H  0.74182072  0.90268303  0.61366839     0.11600
H3895       H  0.69934535  0.95480545  0.62327374     0.11700
H3896       H  0.68572750  0.96814004  0.63483227     0.11700
H3897       H  0.71212515  0.96991723  0.66380918     0.11800
H3898       H  0.72560881  0.95661727  0.65218240     0.10600
C3899       C  0.78501094  0.89709141  0.58238761    -0.03200
C3900       C  0.78008553  0.89780530  0.57063743    -0.09000
C3901       C  0.78669654  0.89368827  0.56064493    -0.16600
C3902       C  0.79826190  0.88877683  0.56230251     0.25500
C3903       C  0.80333346  0.88826288  0.57395042    -0.18300
C3904       C  0.79671628  0.89236919  0.58396509    -0.07200
C3905       C  0.80435529  0.88318371  0.55223772    -0.13600
C3906       C  0.80861869  0.87750915  0.54393042    -0.13400
C3907       C  0.81278991  0.86978246  0.53429702     0.25400
C3908       C  0.82340288  0.87256432  0.52795466    -0.18800
C3909       C  0.82746736  0.86484520  0.51873214    -0.07200
C3910       C  0.82093122  0.85427094  0.51576199    -0.03300
C3911       C  0.81024084  0.85160241  0.52214533    -0.08600
C3912       C  0.80621424  0.85931428  0.53136883    -0.16300
H3913       H  0.77094552  0.90106641  0.56922755     0.11900
H3914       H  0.78262375  0.89394442  0.55168683     0.11200
H3915       H  0.81223330  0.88435522  0.57533223     0.11100
H3916       H  0.80062842  0.89166326  0.59296522     0.11600
H3917       H  0.82855057  0.88065038  0.53016644     0.11700
H3918       H  0.83572573  0.86714017  0.51394984     0.11700
H3919       H  0.80503507  0.84352312  0.52007129     0.11800
H3920       H  0.79798981  0.85708773  0.53625496     0.10600
C3921       C  0.76194075  0.98287384  0.52414360    -0.03200
C3922       C  0.77351137  0.97995134  0.52864412    -0.09000
C3923       C  0.77488499  0.97105999  0.53762708    -0.16600
C3924       C  0.76472640  0.96499064  0.54221792     0.25500
C3925       C  0.75319224  0.96784168  0.53778983    -0.18300
C3926       C  0.75179657  0.97671731  0.52881847    -0.07200
C3927       C  0.76608338  0.95580604  0.55143323    -0.13600
C3928       C  0.76692573  0.94801847  0.55909400    -0.13400
C3929       C  0.76770262  0.93859097  0.56812724     0.25400
C3930       C  0.75722518  0.93246328  0.57186364    -0.18800
C3931       C  0.75799141  0.92314391  0.58046167    -0.07200
C3932       C  0.76924744  0.91988464  0.58541865    -0.03300
C3933       C  0.77970957  0.92610687  0.58169157    -0.08600
C3934       C  0.77894205  0.93541316  0.57308802    -0.16300
H3935       H  0.78149556  0.98451937  0.52521755     0.11900
H3936       H  0.78386108  0.96891589  0.54097974     0.11200
H3937       H  0.74526850  0.96319301  0.54126707     0.11100
H3938       H  0.74277447  0.97874598  0.52553620     0.11600
H3939       H  0.74848593  0.93482405  0.56805987     0.11700
H3940       H  0.74986002  0.91834684  0.58313625     0.11700
H3941       H  0.78845268  0.92370389  0.58544381     0.11800
H3942       H  0.78710669  0.94008231  0.57026445     0.10600
C3943       C  0.73396223  0.92272241  0.38876561    -0.03200
C3944       C  0.72171763  0.92047358  0.38617615    -0.09000
C3945       C  0.71434726  0.92971636  0.38169609    -0.16600
C3946       C  0.71914483  0.94129247  0.37969317     0.25500
C3947       C  0.73126920  0.94372403  0.38254099    -0.18300
C3948       C  0.73867027  0.93446019  0.38707691    -0.07200
C3949       C  0.71177444  0.95027960  0.37384526    -0.13600
C3950       C  0.70519682  0.95689716  0.36818819    -0.13400
C3951       C  0.69710263  0.96399224  0.36087766     0.25400
C3952       C  0.68620470  0.96820868  0.36577995    -0.18800
C3953       C  0.67826138  0.97498781  0.35860785    -0.07200
C3954       C  0.68115879  0.97762397  0.34644664    -0.03300
C3955       C  0.69205924  0.97319807  0.34155053    -0.08600
C3956       C  0.69997496  0.96640128  0.34873584    -0.16300
H3957       H  0.71792012  0.91148319  0.38739970     0.11900
H3958       H  0.70499128  0.92774145  0.37946241     0.11200
H3959       H  0.73508153  0.95264513  0.38090662     0.11100
H3960       H  0.74814807  0.93633120  0.38876529     0.11600
H3961       H  0.68387527  0.96630363  0.37515173     0.11700
H3962       H  0.66995973  0.97833041  0.36263908     0.11700
H3963       H  0.69453881  0.97511115  0.33222482     0.11800
H3964       H  0.70835673  0.96307711  0.34484351     0.10600
C3965       C  0.76493633  0.89668811  0.40908291    -0.03200
C3966       C  0.76383143  0.89863471  0.42165759    -0.09000
C3967       C  0.77213969  0.89342888  0.42969230    -0.16600
C3968       C  0.78153303  0.88614970  0.42523382     0.25500
C3969       C  0.78270227  0.88421056  0.41273054    -0.18300
C3970       C  0.77443572  0.88943609  0.40469447    -0.07200
C3971       C  0.78952866  0.88004014  0.43348796    -0.13600
C3972       C  0.79579479  0.87424081  0.44028920    -0.13400
C3973       C  0.80260357  0.86667679  0.44841056     0.25400
C3974       C  0.81449320  0.86972586  0.45158710    -0.18800
C3975       C  0.82095246  0.86241081  0.45970267    -0.07200
C3976       C  0.81554824  0.85198575  0.46472122    -0.03300
C3977       C  0.80365283  0.84892427  0.46132580    -0.08600
C3978       C  0.79723308  0.85623158  0.45321978    -0.16300
H3979       H  0.75635602  0.90384085  0.42530514     0.11900
H3980       H  0.77106925  0.89483573  0.43937959     0.11200
H3981       H  0.78987694  0.87849125  0.40921180     0.11100
H3982       H  0.77538675  0.88773141  0.39504594     0.11600
H3983       H  0.81872751  0.87778825  0.44787094     0.11700
H3984       H  0.83009997  0.86498361  0.46215191     0.11700
H3985       H  0.79925792  0.84094242  0.46501630     0.11800
H3986       H  0.78804182  0.85378464  0.45077480     0.10600
C3987       C  0.75337254  0.92225249  0.40915781    -0.03200
C3988       C  0.76541225  0.92609451  0.41073404    -0.09000
C3989       C  0.76825730  0.93500799  0.41935269    -0.16600
C3990       C  0.75907780  0.94019520  0.42643384     0.25500
C3991       C  0.74703761  0.93654968  0.42473568    -0.18300
C3992       C  0.74419711  0.92762730  0.41615280    -0.07200
C3993       C  0.76190082  0.94905883  0.43565093    -0.13600
C3994       C  0.76312672  0.95637497  0.44372927    -0.13400
C3995       C  0.76288272  0.96495691  0.45361536     0.25400
C3996       C  0.75223466  0.96623722  0.46035992    -0.18800
C3997       C  0.75153071  0.97484494  0.46963763    -0.07200
C3998       C  0.76150244  0.98231526  0.47236834    -0.03300
C3999       C  0.77229341  0.98083079  0.46572944    -0.08600
C4000       C  0.77296059  0.97220700  0.45636004    -0.16300
H4001       H  0.77258970  0.92206464  0.40538140     0.11900
H4002       H  0.77760000  0.93775507  0.42057591     0.11200
H4003       H  0.73986123  0.94048605  0.43017494     0.11100
H4004       H  0.73489083  0.92470047  0.41514274     0.11600
H4005       H  0.74439166  0.96066802  0.45834041     0.11700
H4006       H  0.74311762  0.97570972  0.47461852     0.11700
H4007       H  0.78010726  0.98647024  0.46762386     0.11800
H4008       H  0.78125677  0.97129339  0.45118934     0.10600
loop_ 
_geom_bond_atom_site_label_1 
_geom_bond_atom_site_label_2 
_geom_bond_distance 
_geom_bond_site_symmetry_2 
_ccdc_geom_bond_type 
N1            C5   1.356       .  A
N1            C2   1.357       .  A
N1         C3987   1.441       .  S
C2            C3   1.383       .  A
C2         C3965   1.477       .  S
C3            C4   1.374       .  A
C3            H6   1.082       .  S
C4            C5   1.383       .  A
C4            H7   1.082       .  S
C5         C3943   1.475       .  S
N8           C12   1.355       .  A
N8            C9   1.356       .  A
N8         C3932   1.440       .  S
C9           C10   1.384       .  A
C9         C3877   1.477       .  S
C10          C11   1.377       .  A
C10          H13   1.082       .  S
C11          C12   1.382       .  A
C11          H14   1.082       .  S
C12        C3899   1.477       .  S
N15          C19   1.356       .  A
N15          C16   1.356       .  A
N15        C3855   1.441       .  S
C16          C17   1.382       .  A
C16        C3844   1.477       .  S
C17          C18   1.376       .  A
C17          H20   1.082       .  S
C18          C19   1.384       .  A
C18          H21   1.082       .  S
C19        C3822   1.478       .  S
N22          C26   1.355       .  A
N22          C23   1.355       .  A
N22        C3800   1.440       .  S
C23          C24   1.384       .  A
C23        C3745   1.478       .  S
C24          C25   1.379       .  A
C24          H27   1.082       .  S
C25          C26   1.382       .  A
C25          H28   1.082       .  S
C26        C3778   1.476       .  S
O29          V37   1.901       .  S
O29          C39   1.265       .  A
O30          V37   1.899   1_565  S
O30          C40   1.265       .  A
O31          V37   1.894       .  S
O31          C41   1.263       .  A
O32          V37   1.891   1_565  S
O32          C42   1.263       .  A
O33          V38   1.908   1_565  S
O33          C42   1.266       .  A
O34          V38   1.908       .  S
O34          C41   1.267       .  A
O35          V38   1.901   1_565  S
O35          C40   1.265       .  A
O36          V38   1.900       .  S
O36          C39   1.265       .  A
V37          V38   2.086       .  T
C39        C3866   1.481       .  S
C40        C3921   1.481       .  S
C41        C3789   1.481       .  S
C42        C3998   1.480       .  S
N43          C47   1.354       .  A
N43          C44   1.356       .  A
N43        C3723   1.442       .  S
C44          C45   1.383       .  A
C44        C3690   1.473       .  S
C45          C46   1.374       .  A
C45          H48   1.082       .  S
C46          C47   1.382       .  A
C46          H49   1.082       .  S
C47        C3712   1.471       .  S
N50          C54   1.357       .  A
N50          C51   1.357       .  A
N50        C3657   1.440       .  S
C51          C52   1.382       .  A
C51        C3613   1.479       .  S
C52          C53   1.376       .  A
C52          H55   1.083       .  S
C53          C54   1.384       .  A
C53          H56   1.082       .  S
C54        C3635   1.481       .  S
N57          C61   1.355       .  A
N57          C58   1.355       .  A
N57        C3591   1.438       .  S
C58          C59   1.384       .  A
C58        C3547   1.479       .  S
C59          C60   1.378       .  A
C59          H62   1.082       .  S
C60          C61   1.383       .  A
C60          H63   1.082       .  S
C61        C3569   1.478       .  S
N64          C68   1.354       .  A
N64          C65   1.354       .  A
N64        C3525   1.442       .  S
C65          C66   1.384       .  A
C65        C3481   1.473       .  S
C66          C67   1.376       .  A
C66          H69   1.082       .  S
C67          C68   1.381       .  A
C67          H70   1.082       .  S
C68        C3514   1.470       .  S
O71          V79   1.900       .  S
O71          C81   1.265       .  A
O72          V79   1.900   1_655  S
O72          C82   1.265       .  A
O73          V79   1.902   1_655  S
O73          C83   1.266       .  A
O74          V79   1.900       .  S
O74          C84   1.265       .  A
O75          V80   1.902       .  S
O75          C84   1.266       .  A
O76          V80   1.905   1_655  S
O76          C83   1.266       .  A
O77          V80   1.899   1_655  S
O77          C82   1.265       .  A
O78          V80   1.897       .  S
O78          C81   1.264       .  A
V79          V80   2.086       .  T
C81        C3602   1.478       .  S
C82        C3668   1.480       .  S
C83        C3734   1.485       .  S
C84        C3536   1.481       .  S
N85          C89   1.356       .  A
N85          C86   1.354       .  A
N85        C3459   1.440       .  S
C86          C87   1.381       .  A
C86        C3437   1.472       .  S
C87          C88   1.376       .  A
C87          H90   1.082       .  S
C88          C89   1.384       .  A
C88          H91   1.082       .  S
C89        C3415   1.477       .  S
N92          C96   1.355       .  A
N92          C93   1.354       .  A
N92        C3393   1.441       .  S
C93          C94   1.382       .  A
C93        C3360   1.474       .  S
C94          C95   1.377       .  A
C94          H97   1.082       .  S
C95          C96   1.384       .  A
C95          H98   1.082       .  S
C96        C3382   1.477       .  S
N99         C103   1.354       .  A
N99         C100   1.355       .  A
N99        C3327   1.439       .  S
C100        C101   1.383       .  A
C100       C3305   1.477       .  S
C101        C102   1.378       .  A
C101        H104   1.082       .  S
C102        C103   1.384       .  A
C102        H105   1.082       .  S
C103       C3283   1.478       .  S
N106        C110   1.356       .  A
N106        C107   1.354       .  A
N106       C3272   1.441       .  S
C107        C108   1.382       .  A
C107       C3250   1.475       .  S
C108        C109   1.377       .  A
C108        H111   1.082       .  S
C109        C110   1.384       .  A
C109        H112   1.082       .  S
C110       C3228   1.479       .  S
O113        V121   1.900   1_565  S
O113        C123   1.265       .  A
O114        V121   1.898       .  S
O114        C124   1.265       .  A
O115        V121   1.902       .  S
O115        C125   1.265       .  A
O116        V121   1.902   1_565  S
O116        C126   1.265       .  A
O117        V122   1.900   1_565  S
O117        C126   1.265       .  A
O118        V122   1.902       .  S
O118        C125   1.265       .  A
O119        V122   1.901       .  S
O119        C124   1.265       .  A
O120        V122   1.902   1_565  S
O120        C123   1.266       .  A
V121        V122   2.086       .  T
C123       C3404   1.482       .  S
C124       C3338   1.479       .  S
C125       C3261   1.483       .  S
C126       C3470   1.482       .  S
N127        C131   1.355       .  A
N127        C128   1.354       .  A
N127       C3195   1.440       .  S
C128        C129   1.383       .  A
C128       C3184   1.476       .  S
C129        C130   1.377       .  A
C129        H132   1.082       .  S
C130        C131   1.383       .  A
C130        H133   1.082       .  S
C131       C3151   1.477       .  S
N134        C138   1.358       .  A
N134        C135   1.358       .  A
N134       C3140   1.438       .  S
C135        C136   1.383       .  A
C135       C3118   1.484       .  S
C136        C137   1.376       .  A
C136        H139   1.082       .  S
C137        C138   1.384       .  A
C137        H140   1.082       .  S
C138       C3096   1.484       .  S
N141        C145   1.356       .  A
N141        C142   1.357       .  A
N141       C3063   1.439       .  S
C142        C143   1.384       .  A
C142       C3052   1.481       .  S
C143        C144   1.377       .  A
C143        H146   1.082       .  S
C144        C145   1.383       .  A
C144        H147   1.082       .  S
C145       C3030   1.481       .  S
N148        C152   1.354       .  A
N148        C149   1.353       .  A
N148       C2997   1.440       .  S
C149        C150   1.382       .  A
C149       C2986   1.471       .  S
C150        C151   1.377       .  A
C150        H153   1.082       .  S
C151        C152   1.384       .  A
C151        H154   1.082       .  S
C152       C2964   1.473       .  S
O155        V163   1.903   1_565  S
O155        C165   1.266       .  A
O156        V163   1.902       .  S
O156        C166   1.265       .  A
O157        V163   1.899       .  S
O157        C167   1.264       .  A
O158        V163   1.896   1_565  S
O158        C168   1.264       .  A
O159        V164   1.903   1_565  S
O159        C168   1.265       .  A
O160        V164   1.901       .  S
O160        C167   1.266       .  A
O161        V164   1.897       .  S
O161        C166   1.264       .  A
O162        V164   1.896   1_565  S
O162        C165   1.264       .  A
V163        V164   2.086       .  T
C165       C3129   1.480       .  S
C166       C3074   1.480       .  S
C167       C3008   1.480       .  S
C168       C3206   1.480       .  S
N169        C173   1.355       .  A
N169        C170   1.356       .  A
N169       C2942   1.440       .  S
C170        C171   1.383       .  A
C170       C2909   1.478       .  S
C171        C172   1.377       .  A
C171        H174   1.082       .  S
C172        C173   1.383       .  A
C172        H175   1.082       .  S
C173       C2887   1.477       .  S
N176        C180   1.351       .  A
N176        C177   1.353       .  A
N176       C2865   1.438       .  S
C177        C178   1.384       .  A
C177       C2843   1.473       .  S
C178        C179   1.379       .  A
C178        H181   1.082       .  S
C179        C180   1.382       .  A
C179        H182   1.082       .  S
C180       C2821   1.471       .  S
N183        C187   1.356       .  A
N183        C184   1.356       .  A
N183       C2810   1.439       .  S
C184        C185   1.383       .  A
C184       C2788   1.479       .  S
C185        C186   1.377       .  A
C185        H188   1.082       .  S
C186        C187   1.384       .  A
C186        H189   1.082       .  S
C187       C2766   1.480       .  S
N190        C194   1.356       .  A
N190        C191   1.355       .  A
N190       C2744   1.440       .  S
C191        C192   1.382       .  A
C191       C2722   1.477       .  S
C192        C193   1.377       .  A
C192        H195   1.082       .  S
C193        C194   1.384       .  A
C193        H196   1.082       .  S
C194       C2700   1.478       .  S
O197        V205   1.896       .  S
O197        C207   1.264       .  A
O198        V205   1.899   1_554  S
O198        C208   1.265       .  A
O199        V205   1.897       .  S
O199        C209   1.264       .  A
O200        V205   1.898   1_554  S
O200        C210   1.265       .  A
O201        V206   1.903   1_554  S
O201        C210   1.266       .  A
O202        V206   1.904       .  S
O202        C209   1.266       .  A
O203        V206   1.899   1_554  S
O203        C208   1.265       .  A
O204        V206   1.901       .  S
O204        C207   1.265       .  A
V205        V206   2.086       .  T
C207       C2876   1.478       .  S
C208       C2799   1.479       .  S
C209       C2931   1.480       .  S
C210       C2733   1.481       .  S
N211        C215   1.355       .  A
N211        C212   1.355       .  A
N211       C2667   1.441       .  S
C212        C213   1.382       .  A
C212       C2645   1.474       .  S
C213        C214   1.376       .  A
C213        H216   1.082       .  S
C214        C215   1.383       .  A
C214        H217   1.082       .  S
C215       C2634   1.476       .  S
N218        C222   1.354       .  A
N218        C219   1.354       .  A
N218       C2601   1.441       .  S
C219        C220   1.382       .  A
C219       C2579   1.473       .  S
C220        C221   1.378       .  A
C220        H223   1.082       .  S
C221        C222   1.384       .  A
C221        H224   1.082       .  S
C222       C2557   1.474       .  S
N225        C229   1.356       .  A
N225        C226   1.356       .  A
N225       C2535   1.439       .  S
C226        C227   1.384       .  A
C226       C2513   1.478       .  S
C227        C228   1.375       .  A
C227        H230   1.082       .  S
C228        C229   1.383       .  A
C228        H231   1.082       .  S
C229       C2502   1.477       .  S
N232        C236   1.357       .  A
N232        C233   1.358       .  A
N232       C2480   1.438       .  S
C233        C234   1.384       .  A
C233       C2458   1.483       .  S
C234        C235   1.376       .  A
C234        H237   1.082       .  S
C235        C236   1.383       .  A
C235        H238   1.082       .  S
C236       C2436   1.482       .  S
O239        V247   1.905       .  S
O239        C249   1.266       .  A
O240        V247   1.902   1_545  S
O240        C250   1.266       .  A
O241        V247   1.898       .  S
O241        C251   1.265       .  A
O242        V247   1.898   1_545  S
O242        C252   1.264       .  A
O243        V248   1.902   1_545  S
O243        C252   1.266       .  A
O244        V248   1.904       .  S
O244        C251   1.266       .  A
O245        V248   1.897   1_545  S
O245        C250   1.264       .  A
O246        V248   1.896       .  S
O246        C249   1.264       .  A
V247        V248   2.086       .  T
C249       C2612   1.481       .  S
C250       C2546   1.480       .  S
C251       C2678   1.482       .  S
C252       C2469   1.479       .  S
N253        C257   1.358       .  A
N253        C254   1.356       .  A
N253       C2403   1.441       .  S
C254        C255   1.382       .  A
C254       C2359   1.477       .  S
C255        C256   1.375       .  A
C255        H258   1.082       .  S
C256        C257   1.384       .  A
C256        H259   1.082       .  S
C257       C2392   1.480       .  S
N260        C264   1.356       .  A
N260        C261   1.355       .  A
N260       C2337   1.440       .  S
C261        C262   1.383       .  A
C261       C2293   1.477       .  S
C262        C263   1.376       .  A
C262        H265   1.082       .  S
C263        C264   1.383       .  A
C263        H266   1.082       .  S
C264       C2315   1.477       .  S
N267        C271   1.353       .  A
N267        C268   1.354       .  A
N267       C2282   1.440       .  S
C268        C269   1.384       .  A
C268       C2249   1.476       .  S
C269        C270   1.379       .  A
C269        H272   1.082       .  S
C270        C271   1.382       .  A
C270        H273   1.082       .  S
C271       C2227   1.475       .  S
N274        C278   1.356       .  A
N274        C275   1.357       .  A
N274       C2216   1.440       .  S
C275        C276   1.382       .  A
C275       C2194   1.479       .  S
C276        C277   1.377       .  A
C276        H279   1.082       .  S
C277        C278   1.384       .  A
C277        H280   1.082       .  S
C278       C2161   1.480       .  S
O281        V289   1.900   1_556  S
O281        C291   1.264       .  A
O282        V289   1.899       .  S
O282        C292   1.265       .  A
O283        V289   1.902   1_556  S
O283        C293   1.266       .  A
O284        V289   1.904       .  S
O284        C294   1.266       .  A
O285        V290   1.899       .  S
O285        C294   1.265       .  A
O286        V290   1.899   1_556  S
O286        C293   1.265       .  A
O287        V290   1.899       .  S
O287        C292   1.265       .  A
O288        V290   1.897   1_556  S
O288        C291   1.265       .  A
V289        V290   2.086       .  T
C291       C2348   1.479       .  S
C292       C2271   1.479       .  S
C293       C2414   1.482       .  S
C294       C2205   1.482       .  S
N295        C299   1.358       .  A
N295        C296   1.357       .  A
N295       C2139   1.441       .  S
C296        C297   1.382       .  A
C296       C2128   1.480       .  S
C297        C298   1.377       .  A
C297        H300   1.082       .  S
C298        C299   1.384       .  A
C298        H301   1.082       .  S
C299       C2095   1.483       .  S
N302        C306   1.354       .  A
N302        C303   1.355       .  A
N302       C2073   1.440       .  S
C303        C304   1.384       .  A
C303       C2062   1.477       .  S
C304        C305   1.376       .  A
C304        H307   1.082       .  S
C305        C306   1.382       .  A
C305        H308   1.082       .  S
C306       C2029   1.474       .  S
N309        C313   1.355       .  A
N309        C310   1.355       .  A
N309       C2007   1.440       .  S
C310        C311   1.384       .  A
C310       C1996   1.479       .  S
C311        C312   1.378       .  A
C311        H314   1.082       .  S
C312        C313   1.382       .  A
C312        H315   1.082       .  S
C313       C1974   1.476       .  S
N316        C320   1.357       .  A
N316        C317   1.356       .  A
N316       C1941   1.441       .  S
C317        C318   1.382       .  A
C317       C1908   1.476       .  S
C318        C319   1.374       .  A
C318        H321   1.082       .  S
C319        C320   1.384       .  A
C319        H322   1.082       .  S
C320       C1919   1.478       .  S
O323        V331   1.900   1_554  S
O323        C333   1.265       .  A
O324        V331   1.903       .  S
O324        C334   1.266       .  A
O325        V331   1.898   1_554  S
O325        C335   1.265       .  A
O326        V331   1.898       .  S
O326        C336   1.264       .  A
O327        V332   1.902       .  S
O327        C336   1.265       .  A
O328        V332   1.901   1_554  S
O328        C335   1.265       .  A
O329        V332   1.899       .  S
O329        C334   1.265       .  A
O330        V332   1.901   1_554  S
O330        C333   1.265       .  A
V331        V332   2.086       .  T
C333       C1952   1.481       .  S
C334       C2150   1.482       .  S
C335       C2018   1.480       .  S
C336       C2084   1.480       .  S
N337        C341   1.357       .  A
N337        C338   1.358       .  A
N337       C1875   1.438       .  S
C338        C339   1.384       .  A
C338       C1853   1.486       .  S
C339        C340   1.377       .  A
C339        H342   1.082       .  S
C340        C341   1.383       .  A
C340        H343   1.082       .  S
C341       C1831   1.483       .  S
N344        C348   1.356       .  A
N344        C345   1.356       .  A
N344       C1809   1.442       .  S
C345        C346   1.383       .  A
C345       C1765   1.475       .  S
C346        C347   1.375       .  A
C346        H349   1.082       .  S
C347        C348   1.383       .  A
C347        H350   1.082       .  S
C348       C1787   1.477       .  S
N351        C355   1.357       .  A
N351        C352   1.356       .  A
N351       C1754   1.442       .  S
C352        C353   1.383       .  A
C352       C1721   1.476       .  S
C353        C354   1.376       .  A
C353        H356   1.082       .  S
C354        C355   1.384       .  A
C354        H357   1.082       .  S
C355       C1710   1.479       .  S
N358        C362   1.355       .  A
N358        C359   1.356       .  A
N358       C1688   1.438       .  S
C359        C360   1.383       .  A
C359       C1666   1.480       .  S
C360        C361   1.377       .  A
C360        H363   1.082       .  S
C361        C362   1.383       .  A
C361        H364   1.082       .  S
C362       C1644   1.478       .  S
O365        V373   1.896       .  S
O365        C375   1.264       .  A
O366        V373   1.897   1_455  S
O366        C376   1.264       .  A
O367        V373   1.906   1_455  S
O367        C377   1.267       .  A
O368        V373   1.906       .  S
O368        C378   1.266       .  A
O369        V374   1.898       .  S
O369        C378   1.265       .  A
O370        V374   1.899   1_455  S
O370        C377   1.264       .  A
O371        V374   1.900   1_455  S
O371        C376   1.265       .  A
O372        V374   1.900       .  S
O372        C375   1.265       .  A
V373        V374   2.086       .  T
C375       C1886   1.478       .  S
C376       C1677   1.479       .  S
C377       C1743   1.483       .  S
C378       C1820   1.483       .  S
N379        C383   1.357       .  A
N379        C380   1.357       .  A
N379       C1611   1.441       .  S
C380        C381   1.382       .  A
C380       C1589   1.477       .  S
C381        C382   1.376       .  A
C381        H384   1.082       .  S
C382        C383   1.384       .  A
C382        H385   1.082       .  S
C383       C1567   1.480       .  S
N386        C390   1.356       .  A
N386        C387   1.357       .  A
N386       C1556   1.441       .  S
C387        C388   1.385       .  A
C387       C1534   1.480       .  S
C388        C389   1.378       .  A
C388        H391   1.082       .  S
C389        C390   1.381       .  A
C389        H392   1.082       .  S
C390       C1501   1.477       .  S
N393        C397   1.356       .  A
N393        C394   1.356       .  A
N393       C1490   1.441       .  S
C394        C395   1.383       .  A
C394       C1457   1.477       .  S
C395        C396   1.375       .  A
C395        H398   1.082       .  S
C396        C397   1.383       .  A
C396        H399   1.082       .  S
C397       C1446   1.476       .  S
N400        C404   1.355       .  A
N400        C401   1.355       .  A
N400       C1413   1.441       .  S
C401        C402   1.382       .  A
C401       C1380   1.473       .  S
C402        C403   1.375       .  A
C402        H405   1.082       .  S
C403        C404   1.383       .  A
C403        H406   1.082       .  S
C404       C1391   1.474       .  S
O407        V415   1.904   1_554  S
O407        C417   1.266       .  A
O408        V415   1.905       .  S
O408        C418   1.266       .  A
O409        V415   1.897       .  S
O409        C419   1.265       .  A
O410        V415   1.898   1_554  S
O410        C420   1.264       .  A
O411        V416   1.904   1_554  S
O411        C420   1.266       .  A
O412        V416   1.906       .  S
O412        C419   1.266       .  A
O413        V416   1.898       .  S
O413        C418   1.264       .  A
O414        V416   1.899   1_554  S
O414        C417   1.265       .  A
V415        V416   2.086       .  T
C417       C1424   1.482       .  S
C418       C1622   1.482       .  S
C419       C1545   1.482       .  S
C420       C1479   1.481       .  S
N421        C425   1.356       .  A
N421        C422   1.356       .  A
N421       C1347   1.441       .  S
C422        C423   1.383       .  A
C422       C1336   1.476       .  S
C423        C424   1.376       .  A
C423        H426   1.082       .  S
C424        C425   1.383       .  A
C424        H427   1.082       .  S
C425       C1314   1.478       .  S
N428        C432   1.355       .  A
N428        C429   1.355       .  A
N428       C1281   1.442       .  S
C429        C430   1.382       .  A
C429       C1237   1.473       .  S
C430        C431   1.376       .  A
C430        H433   1.082       .  S
C431        C432   1.383       .  A
C431        H434   1.082       .  S
C432       C1259   1.475       .  S
N435        C439   1.357       .  A
N435        C436   1.357       .  A
N435       C1215   1.441       .  S
C436        C437   1.382       .  A
C436       C1204   1.476       .  S
C437        C438   1.374       .  A
C437        H440   1.082       .  S
C438        C439   1.384       .  A
C438        H441   1.082       .  S
C439       C1182   1.478       .  S
N442        C446   1.355       .  A
N442        C443   1.355       .  A
N442       C1149   1.440       .  S
C443        C444   1.382       .  A
C443       C1116   1.475       .  S
C444        C445   1.377       .  A
C444        H447   1.082       .  S
C445        C446   1.384       .  A
C445        H448   1.082       .  S
C446       C1127   1.477       .  S
O449        V457   1.902       .  S
O449        C459   1.265       .  A
O450        V457   1.903   1_455  S
O450        C460   1.265       .  A
O451        V457   1.904       .  S
O451        C461   1.266       .  A
O452        V457   1.904   1_455  S
O452        C462   1.266       .  A
O453        V458   1.898   1_455  S
O453        C462   1.265       .  A
O454        V458   1.900       .  S
O454        C461   1.265       .  A
O455        V458   1.899   1_455  S
O455        C460   1.265       .  A
O456        V458   1.901       .  S
O456        C459   1.265       .  A
V457        V458   2.086       .  T
C459       C1292   1.482       .  S
C460       C1226   1.482       .  S
C461       C1358   1.483       .  S
C462       C1160   1.482       .  S
N463        C467   1.357       .  A
N463        C464   1.356       .  A
N463       C1083   1.441       .  S
C464        C465   1.383       .  A
C464       C1039   1.478       .  S
C465        C466   1.376       .  A
C465        H468   1.082       .  S
C466        C467   1.383       .  A
C466        H469   1.082       .  S
C467       C1061   1.479       .  S
N470        C474   1.356       .  A
N470        C471   1.356       .  A
N470       C1017   1.439       .  S
C471        C472   1.383       .  A
C471        C973   1.479       .  S
C472        C473   1.377       .  A
C472        H475   1.082       .  S
C473        C474   1.383       .  A
C473        H476   1.082       .  S
C474        C995   1.478       .  S
N477        C481   1.360       .  A
N477        C478   1.358       .  A
N477        C962   1.439       .  S
C478        C479   1.382       .  A
C478        C918   1.482       .  S
C479        C480   1.375       .  A
C479        H482   1.082       .  S
C480        C481   1.385       .  A
C480        H483   1.082       .  S
C481        C929   1.486       .  S
N484        C488   1.356       .  A
N484        C485   1.356       .  A
N484        C896   1.440       .  S
C485        C486   1.383       .  A
C485        C841   1.477       .  S
C486        C487   1.375       .  A
C486        H489   1.082       .  S
C487        C488   1.383       .  A
C487        H490   1.082       .  S
C488        C863   1.476       .  S
O491        V499   1.898       .  S
O491        C501   1.265       .  A
O492        V499   1.897   1_455  S
O492        C502   1.264       .  A
O493        V499   1.900   1_455  S
O493        C503   1.265       .  A
O494        V499   1.897       .  S
O494        C504   1.264       .  A
O495        V500   1.902       .  S
O495        C504   1.265       .  A
O496        V500   1.901   1_455  S
O496        C503   1.265       .  A
O497        V500   1.903   1_455  S
O497        C502   1.265       .  A
O498        V500   1.904       .  S
O498        C501   1.266       .  A
V499        V500   2.086       .  T
C501       C1094   1.482       .  S
C502        C885   1.480       .  S
C503        C951   1.482       .  S
C504       C1028   1.480       .  S
O505        V513   1.903   1_655  S
O505        C515   1.265       .  A
O506        V513   1.902       .  S
O506        C516   1.266       .  A
O507        V513   1.898       .  S
O507        C517   1.265       .  A
O508        V513   1.899   1_655  S
O508        C518   1.265       .  A
O509        V514   1.896   1_655  S
O509        C518   1.264       .  A
O510        V514   1.898       .  S
O510        C517   1.264       .  A
O511        V514   1.899       .  S
O511        C516   1.265       .  A
O512        V514   1.895   1_655  S
O512        C515   1.264       .  A
V513        V514   2.086       .  T
C515       C1303   1.479       .  S
C516        C907   1.482       .  S
C517       C1171   1.477       .  S
C518       C1050   1.477       .  S
O519        V527   1.898       .  S
O519        C529   1.264       .  A
O520        V527   1.896       .  S
O520        C530   1.264       .  A
O521        V527   1.903       .  S
O521        C531   1.266       .  A
O522        V527   1.904       .  S
O522        C532   1.266       .  A
O523        V528   1.889       .  S
O523        C532   1.262       .  A
O524        V528   1.891       .  S
O524        C531   1.263       .  A
O525        V528   1.898       .  S
O525        C530   1.265       .  A
O526        V528   1.897       .  S
O526        C529   1.265       .  A
V527        V528   2.087       .  T
C529       C1006   1.477       .  S
C530       C3833   1.476       .  S
C531       C1072   1.477       .  S
C532       C3767   1.476       .  S
O533        V541   1.889       .  S
O533        C543   1.263       .  A
O534        V541   1.891       .  S
O534        C544   1.263       .  A
O535        V541   1.900       .  S
O535        C545   1.265       .  A
O536        V541   1.898       .  S
O536        C546   1.265       .  A
O537        V542   1.899       .  S
O537        C546   1.264       .  A
O538        V542   1.901       .  S
O538        C545   1.265       .  A
O539        V542   1.900       .  S
O539        C544   1.265       .  A
O540        V542   1.901       .  S
O540        C543   1.265       .  A
V541        V542   2.087       .  T
C543        C874   1.475       .  S
C544       C3316   1.475       .  S
C545        C940   1.481       .  S
C546       C3239   1.477       .  S
O547        V555   1.897       .  S
O547        C557   1.264       .  A
O548        V555   1.898       .  S
O548        C558   1.265       .  A
O549        V555   1.891       .  S
O549        C559   1.263       .  A
O550        V555   1.891       .  S
O550        C560   1.263       .  A
O551        V556   1.902       .  S
O551        C560   1.265       .  A
O552        V556   1.901       .  S
O552        C559   1.266       .  A
O553        V556   1.894       .  S
O553        C558   1.264       .  A
O554        V556   1.894       .  S
O554        C557   1.264       .  A
V555        V556   2.087       .  T
C557       C1402   1.475       .  S
C558       C1325   1.476       .  S
C559       C1468   1.476       .  S
C560       C1270   1.476       .  S
O561        V569   1.901       .  S
O561        C571   1.265       .  A
O562        V569   1.900       .  S
O562        C572   1.265       .  A
O563        V569   1.895       .  S
O563        C573   1.264       .  A
O564        V569   1.895       .  S
O564        C574   1.264       .  A
O565        V570   1.896       .  S
O565        C574   1.264       .  A
O566        V570   1.896       .  S
O566        C573   1.264       .  A
O567        V570   1.894       .  S
O567        C572   1.264       .  A
O568        V570   1.895       .  S
O568        C571   1.264       .  A
V569        V570   2.087       .  T
C571       C1985   1.478       .  S
C572       C1138   1.476       .  S
C573       C1930   1.474       .  S
C574       C1193   1.474       .  S
O575        V583   1.901       .  S
O575        C585   1.265       .  A
O576        V583   1.899   1_556  S
O576        C586   1.265       .  A
O577        V583   1.905   1_556  S
O577        C587   1.266       .  A
O578        V583   1.904       .  S
O578        C588   1.266       .  A
O579        V584   1.890       .  S
O579        C588   1.263       .  A
O580        V584   1.889   1_556  S
O580        C587   1.263       .  A
O581        V584   1.899   1_556  S
O581        C586   1.265       .  A
O582        V584   1.899       .  S
O582        C585   1.265       .  A
V583        V584   2.086       .  T
C585       C2172   1.480       .  S
C586       C1578   1.479       .  S
C587       C2304   1.477       .  S
C588       C1435   1.476       .  S
O589        V597   1.900       .  S
O589        C599   1.265       .  A
O590        V597   1.898       .  S
O590        C600   1.265       .  A
O591        V597   1.894       .  S
O591        C601   1.264       .  A
O592        V597   1.896       .  S
O592        C602   1.264       .  A
O593        V598   1.897       .  S
O593        C602   1.264       .  A
O594        V598   1.899       .  S
O594        C601   1.265       .  A
O595        V598   1.904       .  S
O595        C600   1.266       .  A
O596        V598   1.902       .  S
O596        C599   1.266       .  A
V597        V598   2.086       .  T
C599       C1523   1.481       .  S
C600       C1864   1.481       .  S
C601       C1600   1.476       .  S
C602       C1798   1.476       .  S
O603        V611   1.898       .  S
O603        C613   1.264       .  A
O604        V611   1.896   1_455  S
O604        C614   1.264       .  A
O605        V611   1.905       .  S
O605        C615   1.266       .  A
O606        V611   1.906   1_455  S
O606        C616   1.266       .  A
O607        V612   1.890   1_455  S
O607        C616   1.263       .  A
O608        V612   1.890       .  S
O608        C615   1.263       .  A
O609        V612   1.898   1_455  S
O609        C614   1.265       .  A
O610        V612   1.900       .  S
O610        C613   1.265       .  A
V611        V612   2.086       .  T
C613       C1842   1.480       .  S
C614        C852   1.477       .  S
C615        C984   1.477       .  S
C616       C1699   1.478       .  S
O617        V625   1.894       .  S
O617        C627   1.264       .  A
O618        V625   1.893       .  S
O618        C628   1.263       .  A
O619        V625   1.894       .  S
O619        C629   1.264       .  A
O620        V625   1.896       .  S
O620        C630   1.264       .  A
O621        V626   1.896       .  S
O621        C630   1.264       .  A
O622        V626   1.898       .  S
O622        C629   1.264       .  A
O623        V626   1.903       .  S
O623        C628   1.266       .  A
O624        V626   1.905       .  S
O624        C627   1.266       .  A
V625        V626   2.087       .  T
C627       C2117   1.479       .  S
C628       C1655   1.478       .  S
C629       C2051   1.475       .  S
C630       C1732   1.475       .  S
O631        V639   1.900   1_554  S
O631        C641   1.265       .  A
O632        V639   1.899       .  S
O632        C642   1.265       .  A
O633        V639   1.903       .  S
O633        C643   1.266       .  A
O634        V639   1.902   1_554  S
O634        C644   1.265       .  A
O635        V640   1.893   1_554  S
O635        C644   1.264       .  A
O636        V640   1.895       .  S
O636        C643   1.264       .  A
O637        V640   1.896       .  S
O637        C642   1.264       .  A
O638        V640   1.895   1_554  S
O638        C641   1.264       .  A
V639        V640   2.087       .  T
C641       C1963   1.476       .  S
C642       C2370   1.477       .  S
C643       C2106   1.479       .  S
C644       C2238   1.477       .  S
O645        V653   1.896       .  S
O645        C655   1.264       .  A
O646        V653   1.897       .  S
O646        C656   1.264       .  A
O647        V653   1.898       .  S
O647        C657   1.265       .  A
O648        V653   1.899       .  S
O648        C658   1.265       .  A
O649        V654   1.893       .  S
O649        C658   1.264       .  A
O650        V654   1.895       .  S
O650        C657   1.264       .  A
O651        V654   1.902       .  S
O651        C656   1.266       .  A
O652        V654   1.901       .  S
O652        C655   1.265       .  A
V653        V654   2.087       .  T
C655       C2381   1.478       .  S
C656       C2447   1.480       .  S
C657       C2326   1.476       .  S
C658       C2524   1.475       .  S
O659        V667   1.892       .  S
O659        C669   1.263       .  A
O660        V667   1.891       .  S
O660        C670   1.263       .  A
O661        V667   1.897       .  S
O661        C671   1.264       .  A
O662        V667   1.896       .  S
O662        C672   1.264       .  A
O663        V668   1.903       .  S
O663        C672   1.266       .  A
O664        V668   1.901       .  S
O664        C671   1.265       .  A
O665        V668   1.897       .  S
O665        C670   1.264       .  A
O666        V668   1.898       .  S
O666        C669   1.264       .  A
V667        V668   2.087       .  T
C669       C2260   1.474       .  S
C670       C2975   1.473       .  S
C671       C2183   1.479       .  S
C672       C3041   1.479       .  S
O673        V681   1.894       .  S
O673        C683   1.264       .  A
O674        V681   1.893   1_545  S
O674        C684   1.264       .  A
O675        V681   1.892   1_545  S
O675        C685   1.263       .  A
O676        V681   1.893       .  S
O676        C686   1.263       .  A
O677        V682   1.901       .  S
O677        C686   1.265       .  A
O678        V682   1.900   1_545  S
O678        C685   1.265       .  A
O679        V682   1.898   1_545  S
O679        C684   1.264       .  A
O680        V682   1.897       .  S
O680        C683   1.264       .  A
V681        V682   2.087       .  T
C683       C3349   1.474       .  S
C684       C2491   1.474       .  S
C685       C3217   1.475       .  S
C686       C2623   1.476       .  S
O687        V695   1.898       .  S
O687        C697   1.264       .  A
O688        V695   1.897       .  S
O688        C698   1.264       .  A
O689        V695   1.901       .  S
O689        C699   1.265       .  A
O690        V695   1.902       .  S
O690        C700   1.265       .  A
O691        V696   1.890       .  S
O691        C700   1.263       .  A
O692        V696   1.892       .  S
O692        C699   1.263       .  A
O693        V696   1.891       .  S
O693        C698   1.263       .  A
O694        V696   1.890       .  S
O694        C697   1.263       .  A
V695        V696   2.087       .  T
C697       C2854   1.472       .  S
C698       C2656   1.473       .  S
C699       C2920   1.476       .  S
C700       C2590   1.474       .  S
O701        V709   1.897       .  S
O701        C711   1.264       .  A
O702        V709   1.899   1_554  S
O702        C712   1.265       .  A
O703        V709   1.896   1_554  S
O703        C713   1.264       .  A
O704        V709   1.897       .  S
O704        C714   1.264       .  A
O705        V710   1.898       .  S
O705        C714   1.265       .  A
O706        V710   1.898   1_554  S
O706        C713   1.264       .  A
O707        V710   1.895   1_554  S
O707        C712   1.264       .  A
O708        V710   1.893       .  S
O708        C711   1.264       .  A
V709        V710   2.087       .  T
C711       C2040   1.474       .  S
C712       C2755   1.477       .  S
C713       C1897   1.477       .  S
C714       C2898   1.477       .  S
O715        V723   1.891       .  S
O715        C725   1.263       .  A
O716        V723   1.890       .  S
O716        C726   1.263       .  A
O717        V723   1.896       .  S
O717        C727   1.264       .  A
O718        V723   1.894       .  S
O718        C728   1.264       .  A
O719        V724   1.904       .  S
O719        C728   1.266       .  A
O720        V724   1.904       .  S
O720        C727   1.266       .  A
O721        V724   1.901       .  S
O721        C726   1.265       .  A
O722        V724   1.901       .  S
O722        C725   1.265       .  A
V723        V724   2.086       .  T
C725       C2711   1.476       .  S
C726       C3173   1.474       .  S
C727       C2777   1.480       .  S
C728       C3107   1.480       .  S
O729        V737   1.900       .  S
O729        C739   1.265       .  A
O730        V737   1.902   1_545  S
O730        C740   1.265       .  A
O731        V737   1.893       .  S
O731        C741   1.263       .  A
O732        V737   1.895   1_545  S
O732        C742   1.264       .  A
O733        V738   1.901   1_545  S
O733        C742   1.265       .  A
O734        V738   1.899       .  S
O734        C741   1.265       .  A
O735        V738   1.891   1_545  S
O735        C740   1.263       .  A
O736        V738   1.893       .  S
O736        C739   1.263       .  A
V737        V738   2.087       .  T
C739       C3162   1.476       .  S
C740       C3294   1.476       .  S
C741       C3426   1.476       .  S
C742       C3019   1.477       .  S
O743        V751   1.896       .  S
O743        C753   1.264       .  A
O744        V751   1.894       .  S
O744        C754   1.264       .  A
O745        V751   1.900       .  S
O745        C755   1.265       .  A
O746        V751   1.899       .  S
O746        C756   1.265       .  A
O747        V752   1.895       .  S
O747        C756   1.264       .  A
O748        V752   1.894       .  S
O748        C755   1.264       .  A
O749        V752   1.892       .  S
O749        C754   1.263       .  A
O750        V752   1.893       .  S
O750        C753   1.264       .  A
V751        V752   2.087       .  T
C753       C3448   1.473       .  S
C754       C3503   1.470       .  S
C755       C3371   1.476       .  S
C756       C3580   1.477       .  S
O757        V765   1.896   1_655  S
O757        C767   1.264       .  A
O758        V765   1.896       .  S
O758        C768   1.264       .  A
O759        V765   1.893       .  S
O759        C769   1.264       .  A
O760        V765   1.893   1_655  S
O760        C770   1.263       .  A
O761        V766   1.895   1_655  S
O761        C770   1.264       .  A
O762        V766   1.896       .  S
O762        C769   1.264       .  A
O763        V766   1.897       .  S
O763        C768   1.264       .  A
O764        V766   1.898   1_655  S
O764        C767   1.264       .  A
V765        V766   2.087       .  T
C767       C1248   1.475       .  S
C768       C3558   1.475       .  S
C769       C1105   1.474       .  S
C770       C3679   1.472       .  S
O771        V779   1.893       .  S
O771        C781   1.263       .  A
O772        V779   1.893       .  S
O772        C782   1.264       .  A
O773        V779   1.897       .  S
O773        C783   1.264       .  A
O774        V779   1.899       .  S
O774        C784   1.265       .  A
O775        V780   1.893       .  S
O775        C784   1.263       .  A
O776        V780   1.890       .  S
O776        C783   1.263       .  A
O777        V780   1.900       .  S
O777        C782   1.265       .  A
O778        V780   1.902       .  S
O778        C781   1.266       .  A
V779        V780   2.087       .  T
C781       C3646   1.477       .  S
C782       C3976   1.476       .  S
C783       C3701   1.472       .  S
C784       C3910   1.475       .  S
O785        V793   1.901   1_565  S
O785        C795   1.265       .  A
O786        V793   1.897       .  S
O786        C796   1.264       .  A
O787        V793   1.894       .  S
O787        C797   1.264       .  A
O788        V793   1.895   1_565  S
O788        C798   1.264       .  A
O789        V794   1.895   1_565  S
O789        C798   1.264       .  A
O790        V794   1.895       .  S
O790        C797   1.264       .  A
O791        V794   1.899       .  S
O791        C796   1.265       .  A
O792        V794   1.899   1_565  S
O792        C795   1.265       .  A
V793        V794   2.087       .  T
C795       C3085   1.480       .  S
C796       C3811   1.478       .  S
C797       C2953   1.472       .  S
C798       C3954   1.474       .  S
O799        V807   1.891       .  S
O799        C809   1.263       .  A
O800        V807   1.890   1_455  S
O800        C810   1.263       .  A
O801        V807   1.902   1_455  S
O801        C811   1.265       .  A
O802        V807   1.902       .  S
O802        C812   1.265       .  A
O803        V808   1.893       .  S
O803        C812   1.263       .  A
O804        V808   1.892   1_455  S
O804        C811   1.263       .  A
O805        V808   1.898   1_455  S
O805        C810   1.265       .  A
O806        V808   1.897       .  S
O806        C809   1.265       .  A
V807        V808   2.087       .  T
C809       C1776   1.473       .  S
C810       C3492   1.473       .  S
C811       C1633   1.477       .  S
C812       C3624   1.476       .  S
O813        V821   1.897       .  S
O813        C823   1.264       .  A
O814        V821   1.899   1_545  S
O814        C824   1.265       .  A
O815        V821   1.895   1_545  S
O815        C825   1.264       .  A
O816        V821   1.895       .  S
O816        C826   1.264       .  A
O817        V822   1.902       .  S
O817        C826   1.265       .  A
O818        V822   1.904   1_545  S
O818        C825   1.266       .  A
O819        V822   1.895   1_545  S
O819        C824   1.264       .  A
O820        V822   1.894       .  S
O820        C823   1.264       .  A
V821        V822   2.087       .  T
C823       C2568   1.475       .  S
C824       C3756   1.476       .  S
C825       C2425   1.480       .  S
C826       C3888   1.479       .  S
O827        V835   1.890   1_554  S
O827        C837   1.263       .  A
O828        V835   1.890       .  S
O828        C838   1.262       .  A
O829        V835   1.903       .  S
O829        C839   1.266       .  A
O830        V835   1.904   1_554  S
O830        C840   1.266       .  A
O831        V836   1.893   1_554  S
O831        C840   1.263       .  A
O832        V836   1.894       .  S
O832        C839   1.264       .  A
O833        V836   1.898       .  S
O833        C838   1.265       .  A
O834        V836   1.899   1_554  S
O834        C837   1.265       .  A
V835        V836   2.087       .  T
C837       C1369   1.473       .  S
C838       C2832   1.473       .  S
C839       C1512   1.479       .  S
C840       C2689   1.478       .  S
C841        C842   1.404       .  A
C841        C846   1.405       .  A
C842        C843   1.395       .  A
C842        H855   1.083       .  S
C843        C844   1.398       .  A
C843        H856   1.084       .  S
C844        C845   1.400       .  A
C844        C847   1.435       .  S
C845        C846   1.398       .  A
C845        H857   1.084       .  S
C846        H858   1.082       .  S
C847        C848   1.203       .  T
C848        C849   1.435       .  S
C849        C850   1.399       .  A
C849        C854   1.399       .  A
C850        C851   1.397       .  A
C850        H859   1.084       .  S
C851        C852   1.407       .  A
C851        H860   1.083       .  S
C852        C853   1.406       .  A
C853        C854   1.396       .  A
C853        H861   1.083       .  S
C854        H862   1.084       .  S
C863        C864   1.404       .  A
C863        C868   1.405       .  A
C864        C865   1.395       .  A
C864        H877   1.083       .  S
C865        C866   1.399       .  A
C865        H878   1.084       .  S
C866        C867   1.399       .  A
C866        C869   1.434       .  S
C867        C868   1.397       .  A
C867        H879   1.084       .  S
C868        H880   1.082       .  S
C869        C870   1.202       .  T
C870        C871   1.434       .  S
C871        C872   1.400       .  A
C871        C876   1.397       .  A
C872        C873   1.399       .  A
C872        H881   1.083       .  S
C873        C874   1.406       .  A
C873        H882   1.083       .  S
C874        C875   1.406       .  A
C875        C876   1.394       .  A
C875        H883   1.083       .  S
C876        H884   1.084       .  S
C885        C886   1.407       .  A
C885        C890   1.407       .  A
C886        C887   1.397       .  A
C886        H899   1.083       .  S
C887        C888   1.399       .  A
C887        H900   1.084       .  S
C888        C889   1.401       .  A
C888        C891   1.440       .  S
C889        C890   1.400       .  A
C889        H901   1.083       .  S
C890        H902   1.083       .  S
C891        C892   1.206       .  T
C892        C893   1.440       .  S
C893        C894   1.400       .  A
C893        C898   1.401       .  A
C894        C895   1.397       .  A
C894        H903   1.084       .  S
C895        C896   1.403       .  A
C895        H904   1.083       .  S
C896        C897   1.404       .  A
C897        C898   1.400       .  A
C897        H905   1.083       .  S
C898        H906   1.083       .  S
C907        C908   1.407       .  A
C907        C912   1.407       .  A
C908        C909   1.399       .  A
C908        H921   1.083       .  S
C909        C910   1.400       .  A
C909        H922   1.084       .  S
C910        C911   1.400       .  A
C910        C913   1.442       .  S
C911        C912   1.400       .  A
C911        H923   1.083       .  S
C912        H924   1.083       .  S
C913        C914   1.207       .  T
C914        C915   1.442       .  S
C915        C916   1.401       .  A
C915        C920   1.400       .  A
C916        C917   1.401       .  A
C916        H925   1.083       .  S
C917        C918   1.406       .  A
C917        H926   1.083       .  S
C918        C919   1.405       .  A
C919        C920   1.398       .  A
C919        H927   1.083       .  S
C920        H928   1.084       .  S
C929        C930   1.407       .  A
C929        C934   1.407       .  A
C930        C931   1.402       .  A
C930        H943   1.082       .  S
C931        C932   1.401       .  A
C931        H944   1.083       .  S
C932        C933   1.399       .  A
C932        C935   1.442       .  S
C933        C934   1.397       .  A
C933        H945   1.084       .  S
C934        H946   1.083       .  S
C935        C936   1.208       .  T
C936        C937   1.442       .  S
C937        C938   1.400       .  A
C937        C942   1.400       .  A
C938        C939   1.399       .  A
C938        H947   1.084       .  S
C939        C940   1.407       .  A
C939        H948   1.083       .  S
C940        C941   1.407       .  A
C941        C942   1.400       .  A
C941        H949   1.083       .  S
C942        H950   1.083       .  S
C951        C952   1.408       .  A
C951        C956   1.407       .  A
C952        C953   1.400       .  A
C952        H965   1.083       .  S
C953        C954   1.400       .  A
C953        H966   1.083       .  S
C954        C955   1.400       .  A
C954        C957   1.441       .  S
C955        C956   1.398       .  A
C955        H967   1.084       .  S
C956        H968   1.083       .  S
C957        C958   1.207       .  T
C958        C959   1.441       .  S
C959        C960   1.400       .  A
C959        C964   1.402       .  A
C960        C961   1.396       .  A
C960        H969   1.084       .  S
C961        C962   1.403       .  A
C961        H970   1.083       .  S
C962        C963   1.405       .  A
C963        C964   1.401       .  A
C963        H971   1.083       .  S
C964        H972   1.083       .  S
C973        C974   1.404       .  A
C973        C978   1.405       .  A
C974        C975   1.396       .  A
C974        H987   1.083       .  S
C975        C976   1.399       .  A
C975        H988   1.084       .  S
C976        C977   1.400       .  A
C976        C979   1.437       .  S
C977        C978   1.398       .  A
C977        H989   1.084       .  S
C978        H990   1.082       .  S
C979        C980   1.204       .  T
C980        C981   1.437       .  S
C981        C982   1.398       .  A
C981        C986   1.400       .  A
C982        C983   1.395       .  A
C982        H991   1.084       .  S
C983        C984   1.407       .  A
C983        H992   1.083       .  S
C984        C985   1.406       .  A
C985        C986   1.400       .  A
C985        H993   1.083       .  S
C986        H994   1.083       .  S
C995        C996   1.404       .  A
C995       C1000   1.405       .  A
C996        C997   1.397       .  A
C996       H1009   1.083       .  S
C997        C998   1.399       .  A
C997       H1010   1.083       .  S
C998        C999   1.400       .  A
C998       C1001   1.437       .  S
C999       C1000   1.397       .  A
C999       H1011   1.084       .  S
C1000      H1012   1.082       .  S
C1001      C1002   1.204       .  T
C1002      C1003   1.437       .  S
C1003      C1004   1.399       .  A
C1003      C1008   1.399       .  A
C1004      C1005   1.398       .  A
C1004      H1013   1.083       .  S
C1005      C1006   1.407       .  A
C1005      H1014   1.083       .  S
C1006      C1007   1.406       .  A
C1007      C1008   1.397       .  A
C1007      H1015   1.083       .  S
C1008      H1016   1.084       .  S
C1017      C1018   1.404       .  A
C1017      C1022   1.404       .  A
C1018      C1019   1.398       .  A
C1018      H1031   1.083       .  S
C1019      C1020   1.400       .  A
C1019      H1032   1.083       .  S
C1020      C1021   1.401       .  A
C1020      C1023   1.440       .  S
C1021      C1022   1.398       .  A
C1021      H1033   1.083       .  S
C1022      H1034   1.083       .  S
C1023      C1024   1.206       .  T
C1024      C1025   1.440       .  S
C1025      C1026   1.399       .  A
C1025      C1030   1.400       .  A
C1026      C1027   1.397       .  A
C1026      H1035   1.084       .  S
C1027      C1028   1.407       .  A
C1027      H1036   1.083       .  S
C1028      C1029   1.407       .  A
C1029      C1030   1.400       .  A
C1029      H1037   1.083       .  S
C1030      H1038   1.083       .  S
C1039      C1040   1.405       .  A
C1039      C1044   1.404       .  A
C1040      C1041   1.399       .  A
C1040      H1053   1.083       .  S
C1041      C1042   1.400       .  A
C1041      H1054   1.084       .  S
C1042      C1043   1.399       .  A
C1042      C1045   1.437       .  S
C1043      C1044   1.396       .  A
C1043      H1055   1.084       .  S
C1044      H1056   1.083       .  S
C1045      C1046   1.204       .  T
C1046      C1047   1.437       .  S
C1047      C1048   1.399       .  A
C1047      C1052   1.399       .  A
C1048      C1049   1.396       .  A
C1048      H1057   1.084       .  S
C1049      C1050   1.406       .  A
C1049      H1058   1.083       .  S
C1050      C1051   1.407       .  A
C1051      C1052   1.399       .  A
C1051      H1059   1.083       .  S
C1052      H1060   1.083       .  S
C1061      C1062   1.405       .  A
C1061      C1066   1.405       .  A
C1062      C1063   1.397       .  A
C1062      H1075   1.082       .  S
C1063      C1064   1.399       .  A
C1063      H1076   1.084       .  S
C1064      C1065   1.399       .  A
C1064      C1067   1.436       .  S
C1065      C1066   1.397       .  A
C1065      H1077   1.084       .  S
C1066      H1078   1.083       .  S
C1067      C1068   1.204       .  T
C1068      C1069   1.436       .  S
C1069      C1070   1.398       .  A
C1069      C1074   1.400       .  A
C1070      C1071   1.395       .  A
C1070      H1079   1.084       .  S
C1071      C1072   1.407       .  A
C1071      H1080   1.083       .  S
C1072      C1073   1.406       .  A
C1073      C1074   1.399       .  A
C1073      H1081   1.083       .  S
C1074      H1082   1.083       .  S
C1083      C1084   1.404       .  A
C1083      C1088   1.405       .  A
C1084      C1085   1.398       .  A
C1084      H1097   1.082       .  S
C1085      C1086   1.401       .  A
C1085      H1098   1.084       .  S
C1086      C1087   1.401       .  A
C1086      C1089   1.441       .  S
C1087      C1088   1.399       .  A
C1087      H1099   1.083       .  S
C1088      H1100   1.083       .  S
C1089      C1090   1.207       .  T
C1090      C1091   1.441       .  S
C1091      C1092   1.399       .  A
C1091      C1096   1.401       .  A
C1092      C1093   1.398       .  A
C1092      H1101   1.084       .  S
C1093      C1094   1.407       .  A
C1093      H1102   1.083       .  S
C1094      C1095   1.407       .  A
C1095      C1096   1.400       .  A
C1095      H1103   1.083       .  S
C1096      H1104   1.083       .  S
C1105      C1106   1.407       .  A
C1105      C1110   1.406       .  A
C1106      C1107   1.397       .  A
C1106      H1119   1.083       .  S
C1107      C1108   1.399       .  A
C1107      H1120   1.083       .  S
C1108      C1109   1.398       .  A
C1108      C1111   1.433       .  S
C1109      C1110   1.394       .  A
C1109      H1121   1.084       .  S
C1110      H1122   1.083       .  S
C1111      C1112   1.202       .  T
C1112      C1113   1.433       .  S
C1113      C1114   1.399       .  A
C1113      C1118   1.399       .  A
C1114      C1115   1.395       .  A
C1114      H1123   1.084       .  S
C1115      C1116   1.404       .  A
C1115      H1124   1.082       .  S
C1116      C1117   1.404       .  A
C1117      C1118   1.397       .  A
C1117      H1125   1.083       .  S
C1118      H1126   1.083       .  S
C1127      C1128   1.405       .  A
C1127      C1132   1.404       .  A
C1128      C1129   1.397       .  A
C1128      H1141   1.082       .  S
C1129      C1130   1.399       .  A
C1129      H1142   1.084       .  S
C1130      C1131   1.399       .  A
C1130      C1133   1.435       .  S
C1131      C1132   1.396       .  A
C1131      H1143   1.083       .  S
C1132      H1144   1.083       .  S
C1133      C1134   1.203       .  T
C1134      C1135   1.435       .  S
C1135      C1136   1.398       .  A
C1135      C1140   1.400       .  A
C1136      C1137   1.394       .  A
C1136      H1145   1.084       .  S
C1137      C1138   1.406       .  A
C1137      H1146   1.083       .  S
C1138      C1139   1.407       .  A
C1139      C1140   1.399       .  A
C1139      H1147   1.083       .  S
C1140      H1148   1.083       .  S
C1149      C1150   1.404       .  A
C1149      C1154   1.404       .  A
C1150      C1151   1.400       .  A
C1150      H1163   1.083       .  S
C1151      C1152   1.401       .  A
C1151      H1164   1.083       .  S
C1152      C1153   1.401       .  A
C1152      C1155   1.442       .  S
C1153      C1154   1.398       .  A
C1153      H1165   1.084       .  S
C1154      H1166   1.083       .  S
C1155      C1156   1.207       .  T
C1156      C1157   1.442       .  S
C1157      C1158   1.399       .  A
C1157      C1162   1.401       .  A
C1158      C1159   1.398       .  A
C1158      H1167   1.084       .  S
C1159      C1160   1.407       .  A
C1159      H1168   1.083       .  S
C1160      C1161   1.407       .  A
C1161      C1162   1.401       .  A
C1161      H1169   1.083       .  S
C1162      H1170   1.083       .  S
C1171      C1172   1.406       .  A
C1171      C1176   1.407       .  A
C1172      C1173   1.398       .  A
C1172      H1185   1.083       .  S
C1173      C1174   1.399       .  A
C1173      H1186   1.084       .  S
C1174      C1175   1.399       .  A
C1174      C1177   1.437       .  S
C1175      C1176   1.398       .  A
C1175      H1187   1.084       .  S
C1176      H1188   1.083       .  S
C1177      C1178   1.204       .  T
C1178      C1179   1.436       .  S
C1179      C1180   1.401       .  A
C1179      C1184   1.397       .  A
C1180      C1181   1.400       .  A
C1180      H1189   1.083       .  S
C1181      C1182   1.406       .  A
C1181      H1190   1.082       .  S
C1182      C1183   1.404       .  A
C1183      C1184   1.394       .  A
C1183      H1191   1.083       .  S
C1184      H1192   1.084       .  S
C1193      C1194   1.406       .  A
C1193      C1198   1.406       .  A
C1194      C1195   1.396       .  A
C1194      H1207   1.083       .  S
C1195      C1196   1.399       .  A
C1195      H1208   1.084       .  S
C1196      C1197   1.398       .  A
C1196      C1199   1.433       .  S
C1197      C1198   1.396       .  A
C1197      H1209   1.084       .  S
C1198      H1210   1.083       .  S
C1199      C1200   1.202       .  T
C1200      C1201   1.433       .  S
C1201      C1202   1.399       .  A
C1201      C1206   1.399       .  A
C1202      C1203   1.396       .  A
C1202      H1211   1.084       .  S
C1203      C1204   1.405       .  A
C1203      H1212   1.082       .  S
C1204      C1205   1.404       .  A
C1205      C1206   1.395       .  A
C1205      H1213   1.083       .  S
C1206      H1214   1.084       .  S
C1215      C1216   1.405       .  A
C1215      C1220   1.404       .  A
C1216      C1217   1.399       .  A
C1216      H1229   1.083       .  S
C1217      C1218   1.400       .  A
C1217      H1230   1.083       .  S
C1218      C1219   1.402       .  A
C1218      C1221   1.442       .  S
C1219      C1220   1.400       .  A
C1219      H1231   1.083       .  S
C1220      H1232   1.083       .  S
C1221      C1222   1.207       .  T
C1222      C1223   1.442       .  S
C1223      C1224   1.399       .  A
C1223      C1228   1.401       .  A
C1224      C1225   1.398       .  A
C1224      H1233   1.084       .  S
C1225      C1226   1.407       .  A
C1225      H1234   1.083       .  S
C1226      C1227   1.408       .  A
C1227      C1228   1.401       .  A
C1227      H1235   1.083       .  S
C1228      H1236   1.083       .  S
C1237      C1238   1.404       .  A
C1237      C1242   1.402       .  A
C1238      C1239   1.397       .  A
C1238      H1251   1.083       .  S
C1239      C1240   1.400       .  A
C1239      H1252   1.083       .  S
C1240      C1241   1.399       .  A
C1240      C1243   1.434       .  S
C1241      C1242   1.395       .  A
C1241      H1253   1.084       .  S
C1242      H1254   1.083       .  S
C1243      C1244   1.203       .  T
C1244      C1245   1.435       .  S
C1245      C1246   1.399       .  A
C1245      C1250   1.399       .  A
C1246      C1247   1.396       .  A
C1246      H1255   1.084       .  S
C1247      C1248   1.406       .  A
C1247      H1256   1.083       .  S
C1248      C1249   1.406       .  A
C1249      C1250   1.397       .  A
C1249      H1257   1.083       .  S
C1250      H1258   1.084       .  S
C1259      C1260   1.404       .  A
C1259      C1264   1.404       .  A
C1260      C1261   1.396       .  A
C1260      H1273   1.083       .  S
C1261      C1262   1.399       .  A
C1261      H1274   1.083       .  S
C1262      C1263   1.400       .  A
C1262      C1265   1.435       .  S
C1263      C1264   1.397       .  A
C1263      H1275   1.084       .  S
C1264      H1276   1.083       .  S
C1265      C1266   1.203       .  T
C1266      C1267   1.435       .  S
C1267      C1268   1.398       .  A
C1267      C1272   1.400       .  A
C1268      C1269   1.395       .  A
C1268      H1277   1.084       .  S
C1269      C1270   1.406       .  A
C1269      H1278   1.083       .  S
C1270      C1271   1.406       .  A
C1271      C1272   1.399       .  A
C1271      H1279   1.083       .  S
C1272      H1280   1.083       .  S
C1281      C1282   1.404       .  A
C1281      C1286   1.405       .  A
C1282      C1283   1.399       .  A
C1282      H1295   1.083       .  S
C1283      C1284   1.401       .  A
C1283      H1296   1.083       .  S
C1284      C1285   1.400       .  A
C1284      C1287   1.442       .  S
C1285      C1286   1.399       .  A
C1285      H1297   1.083       .  S
C1286      H1298   1.083       .  S
C1287      C1288   1.207       .  T
C1288      C1289   1.442       .  S
C1289      C1290   1.400       .  A
C1289      C1294   1.400       .  A
C1290      C1291   1.400       .  A
C1290      H1299   1.083       .  S
C1291      C1292   1.407       .  A
C1291      H1300   1.083       .  S
C1292      C1293   1.407       .  A
C1293      C1294   1.399       .  A
C1293      H1301   1.083       .  S
C1294      H1302   1.084       .  S
C1303      C1304   1.406       .  A
C1303      C1308   1.407       .  A
C1304      C1305   1.395       .  A
C1304      H1317   1.083       .  S
C1305      C1306   1.398       .  A
C1305      H1318   1.084       .  S
C1306      C1307   1.400       .  A
C1306      C1309   1.437       .  S
C1307      C1308   1.400       .  A
C1307      H1319   1.083       .  S
C1308      H1320   1.083       .  S
C1309      C1310   1.204       .  T
C1310      C1311   1.437       .  S
C1311      C1312   1.399       .  A
C1311      C1316   1.400       .  A
C1312      C1313   1.398       .  A
C1312      H1321   1.084       .  S
C1313      C1314   1.406       .  A
C1313      H1322   1.082       .  S
C1314      C1315   1.404       .  A
C1315      C1316   1.396       .  A
C1315      H1323   1.083       .  S
C1316      H1324   1.084       .  S
C1325      C1326   1.406       .  A
C1325      C1330   1.406       .  A
C1326      C1327   1.396       .  A
C1326      H1339   1.083       .  S
C1327      C1328   1.399       .  A
C1327      H1340   1.084       .  S
C1328      C1329   1.399       .  A
C1328      C1331   1.435       .  S
C1329      C1330   1.397       .  A
C1329      H1341   1.083       .  S
C1330      H1342   1.083       .  S
C1331      C1332   1.203       .  T
C1332      C1333   1.435       .  S
C1333      C1334   1.400       .  A
C1333      C1338   1.399       .  A
C1334      C1335   1.398       .  A
C1334      H1343   1.084       .  S
C1335      C1336   1.405       .  A
C1335      H1344   1.082       .  S
C1336      C1337   1.404       .  A
C1337      C1338   1.395       .  A
C1337      H1345   1.083       .  S
C1338      H1346   1.084       .  S
C1347      C1348   1.404       .  A
C1347      C1352   1.404       .  A
C1348      C1349   1.400       .  A
C1348      H1361   1.083       .  S
C1349      C1350   1.402       .  A
C1349      H1362   1.083       .  S
C1350      C1351   1.401       .  A
C1350      C1353   1.443       .  S
C1351      C1352   1.399       .  A
C1351      H1363   1.083       .  S
C1352      H1364   1.083       .  S
C1353      C1354   1.208       .  T
C1354      C1355   1.443       .  S
C1355      C1356   1.400       .  A
C1355      C1360   1.401       .  A
C1356      C1357   1.399       .  A
C1356      H1365   1.084       .  S
C1357      C1358   1.408       .  A
C1357      H1366   1.083       .  S
C1358      C1359   1.407       .  A
C1359      C1360   1.400       .  A
C1359      H1367   1.083       .  S
C1360      H1368   1.083       .  S
C1369      C1370   1.407       .  A
C1369      C1374   1.405       .  A
C1370      C1371   1.395       .  A
C1370      H1383   1.083       .  S
C1371      C1372   1.397       .  A
C1371      H1384   1.084       .  S
C1372      C1373   1.399       .  A
C1372      C1375   1.433       .  S
C1373      C1374   1.397       .  A
C1373      H1385   1.084       .  S
C1374      H1386   1.083       .  S
C1375      C1376   1.202       .  T
C1376      C1377   1.432       .  S
C1377      C1378   1.398       .  A
C1377      C1382   1.400       .  A
C1378      C1379   1.394       .  A
C1378      H1387   1.084       .  S
C1379      C1380   1.403       .  A
C1379      H1388   1.083       .  S
C1380      C1381   1.405       .  A
C1381      C1382   1.397       .  A
C1381      H1389   1.082       .  S
C1382      H1390   1.084       .  S
C1391      C1392   1.404       .  A
C1391      C1396   1.404       .  A
C1392      C1393   1.395       .  A
C1392      H1405   1.083       .  S
C1393      C1394   1.399       .  A
C1393      H1406   1.083       .  S
C1394      C1395   1.399       .  A
C1394      C1397   1.433       .  S
C1395      C1396   1.397       .  A
C1395      H1407   1.084       .  S
C1396      H1408   1.082       .  S
C1397      C1398   1.202       .  T
C1398      C1399   1.434       .  S
C1399      C1400   1.398       .  A
C1399      C1404   1.398       .  A
C1400      C1401   1.396       .  A
C1400      H1409   1.084       .  S
C1401      C1402   1.406       .  A
C1401      H1410   1.083       .  S
C1402      C1403   1.406       .  A
C1403      C1404   1.396       .  A
C1403      H1411   1.083       .  S
C1404      H1412   1.084       .  S
C1413      C1414   1.404       .  A
C1413      C1418   1.405       .  A
C1414      C1415   1.399       .  A
C1414      H1427   1.083       .  S
C1415      C1416   1.401       .  A
C1415      H1428   1.083       .  S
C1416      C1417   1.401       .  A
C1416      C1419   1.442       .  S
C1417      C1418   1.399       .  A
C1417      H1429   1.084       .  S
C1418      H1430   1.082       .  S
C1419      C1420   1.207       .  T
C1420      C1421   1.442       .  S
C1421      C1422   1.401       .  A
C1421      C1426   1.400       .  A
C1422      C1423   1.401       .  A
C1422      H1431   1.083       .  S
C1423      C1424   1.408       .  A
C1423      H1432   1.083       .  S
C1424      C1425   1.407       .  A
C1425      C1426   1.398       .  A
C1425      H1433   1.083       .  S
C1426      H1434   1.084       .  S
C1435      C1436   1.406       .  A
C1435      C1440   1.407       .  A
C1436      C1437   1.394       .  A
C1436      H1449   1.083       .  S
C1437      C1438   1.397       .  A
C1437      H1450   1.084       .  S
C1438      C1439   1.400       .  A
C1438      C1441   1.435       .  S
C1439      C1440   1.400       .  A
C1439      H1451   1.083       .  S
C1440      H1452   1.083       .  S
C1441      C1442   1.203       .  T
C1442      C1443   1.435       .  S
C1443      C1444   1.400       .  A
C1443      C1448   1.398       .  A
C1444      C1445   1.398       .  A
C1444      H1453   1.083       .  S
C1445      C1446   1.405       .  A
C1445      H1454   1.083       .  S
C1446      C1447   1.404       .  A
C1447      C1448   1.395       .  A
C1447      H1455   1.083       .  S
C1448      H1456   1.084       .  S
C1457      C1458   1.404       .  A
C1457      C1462   1.405       .  A
C1458      C1459   1.396       .  A
C1458      H1471   1.083       .  S
C1459      C1460   1.399       .  A
C1459      H1472   1.084       .  S
C1460      C1461   1.399       .  A
C1460      C1463   1.435       .  S
C1461      C1462   1.397       .  A
C1461      H1473   1.084       .  S
C1462      H1474   1.082       .  S
C1463      C1464   1.203       .  T
C1464      C1465   1.435       .  S
C1465      C1466   1.400       .  A
C1465      C1470   1.398       .  A
C1466      C1467   1.397       .  A
C1466      H1475   1.084       .  S
C1467      C1468   1.405       .  A
C1467      H1476   1.083       .  S
C1468      C1469   1.407       .  A
C1469      C1470   1.396       .  A
C1469      H1477   1.083       .  S
C1470      H1478   1.084       .  S
C1479      C1480   1.408       .  A
C1479      C1484   1.407       .  A
C1480      C1481   1.399       .  A
C1480      H1493   1.083       .  S
C1481      C1482   1.400       .  A
C1481      H1494   1.084       .  S
C1482      C1483   1.400       .  A
C1482      C1485   1.442       .  S
C1483      C1484   1.400       .  A
C1483      H1495   1.083       .  S
C1484      H1496   1.083       .  S
C1485      C1486   1.207       .  T
C1486      C1487   1.441       .  S
C1487      C1488   1.401       .  A
C1487      C1492   1.400       .  A
C1488      C1489   1.400       .  A
C1488      H1497   1.083       .  S
C1489      C1490   1.405       .  A
C1489      H1498   1.082       .  S
C1490      C1491   1.404       .  A
C1491      C1492   1.398       .  A
C1491      H1499   1.083       .  S
C1492      H1500   1.084       .  S
C1501      C1502   1.404       .  A
C1501      C1506   1.404       .  A
C1502      C1503   1.399       .  A
C1502      H1515   1.083       .  S
C1503      C1504   1.401       .  A
C1503      H1516   1.083       .  S
C1504      C1505   1.399       .  A
C1504      C1507   1.438       .  S
C1505      C1506   1.396       .  A
C1505      H1517   1.084       .  S
C1506      H1518   1.083       .  S
C1507      C1508   1.205       .  T
C1508      C1509   1.438       .  S
C1509      C1510   1.400       .  A
C1509      C1514   1.398       .  A
C1510      C1511   1.399       .  A
C1510      H1519   1.084       .  S
C1511      C1512   1.406       .  A
C1511      H1520   1.083       .  S
C1512      C1513   1.407       .  A
C1513      C1514   1.397       .  A
C1513      H1521   1.083       .  S
C1514      H1522   1.084       .  S
C1523      C1524   1.406       .  A
C1523      C1528   1.408       .  A
C1524      C1525   1.398       .  A
C1524      H1537   1.083       .  S
C1525      C1526   1.400       .  A
C1525      H1538   1.084       .  S
C1526      C1527   1.400       .  A
C1526      C1529   1.441       .  S
C1527      C1528   1.400       .  A
C1527      H1539   1.084       .  S
C1528      H1540   1.083       .  S
C1529      C1530   1.206       .  T
C1530      C1531   1.440       .  S
C1531      C1532   1.400       .  A
C1531      C1536   1.401       .  A
C1532      C1533   1.398       .  A
C1532      H1541   1.083       .  S
C1533      C1534   1.406       .  A
C1533      H1542   1.083       .  S
C1534      C1535   1.405       .  A
C1535      C1536   1.399       .  A
C1535      H1543   1.082       .  S
C1536      H1544   1.084       .  S
C1545      C1546   1.408       .  A
C1545      C1550   1.407       .  A
C1546      C1547   1.402       .  A
C1546      H1559   1.083       .  S
C1547      C1548   1.401       .  A
C1547      H1560   1.083       .  S
C1548      C1549   1.399       .  A
C1548      C1551   1.442       .  S
C1549      C1550   1.397       .  A
C1549      H1561   1.084       .  S
C1550      H1562   1.083       .  S
C1551      C1552   1.207       .  T
C1552      C1553   1.442       .  S
C1553      C1554   1.400       .  A
C1553      C1558   1.402       .  A
C1554      C1555   1.397       .  A
C1554      H1563   1.084       .  S
C1555      C1556   1.404       .  A
C1555      H1564   1.083       .  S
C1556      C1557   1.404       .  A
C1557      C1558   1.401       .  A
C1557      H1565   1.082       .  S
C1558      H1566   1.083       .  S
C1567      C1568   1.405       .  A
C1567      C1572   1.405       .  A
C1568      C1569   1.397       .  A
C1568      H1581   1.083       .  S
C1569      C1570   1.399       .  A
C1569      H1582   1.084       .  S
C1570      C1571   1.400       .  A
C1570      C1573   1.438       .  S
C1571      C1572   1.398       .  A
C1571      H1583   1.084       .  S
C1572      H1584   1.082       .  S
C1573      C1574   1.205       .  T
C1574      C1575   1.438       .  S
C1575      C1576   1.399       .  A
C1575      C1580   1.400       .  A
C1576      C1577   1.398       .  A
C1576      H1585   1.084       .  S
C1577      C1578   1.407       .  A
C1577      H1586   1.083       .  S
C1578      C1579   1.407       .  A
C1579      C1580   1.398       .  A
C1579      H1587   1.083       .  S
C1580      H1588   1.084       .  S
C1589      C1590   1.404       .  A
C1589      C1594   1.405       .  A
C1590      C1591   1.396       .  A
C1590      H1603   1.083       .  S
C1591      C1592   1.399       .  A
C1591      H1604   1.084       .  S
C1592      C1593   1.400       .  A
C1592      C1595   1.436       .  S
C1593      C1594   1.398       .  A
C1593      H1605   1.084       .  S
C1594      H1606   1.083       .  S
C1595      C1596   1.204       .  T
C1596      C1597   1.436       .  S
C1597      C1598   1.399       .  A
C1597      C1602   1.398       .  A
C1598      C1599   1.398       .  A
C1598      H1607   1.083       .  S
C1599      C1600   1.407       .  A
C1599      H1608   1.083       .  S
C1600      C1601   1.406       .  A
C1601      C1602   1.396       .  A
C1601      H1609   1.083       .  S
C1602      H1610   1.084       .  S
C1611      C1612   1.405       .  A
C1611      C1616   1.404       .  A
C1612      C1613   1.399       .  A
C1612      H1625   1.083       .  S
C1613      C1614   1.401       .  A
C1613      H1626   1.083       .  S
C1614      C1615   1.401       .  A
C1614      C1617   1.442       .  S
C1615      C1616   1.399       .  A
C1615      H1627   1.083       .  S
C1616      H1628   1.083       .  S
C1617      C1618   1.207       .  T
C1618      C1619   1.442       .  S
C1619      C1620   1.399       .  A
C1619      C1624   1.401       .  A
C1620      C1621   1.398       .  A
C1620      H1629   1.084       .  S
C1621      C1622   1.407       .  A
C1621      H1630   1.083       .  S
C1622      C1623   1.407       .  A
C1623      C1624   1.401       .  A
C1623      H1631   1.083       .  S
C1624      H1632   1.083       .  S
C1633      C1634   1.407       .  A
C1633      C1638   1.406       .  A
C1634      C1635   1.396       .  A
C1634      H1647   1.083       .  S
C1635      C1636   1.398       .  A
C1635      H1648   1.084       .  S
C1636      C1637   1.400       .  A
C1636      C1639   1.436       .  S
C1637      C1638   1.399       .  A
C1637      H1649   1.083       .  S
C1638      H1650   1.083       .  S
C1639      C1640   1.204       .  T
C1640      C1641   1.436       .  S
C1641      C1642   1.399       .  A
C1641      C1646   1.400       .  A
C1642      C1643   1.396       .  A
C1642      H1651   1.084       .  S
C1643      C1644   1.404       .  A
C1643      H1652   1.083       .  S
C1644      C1645   1.406       .  A
C1645      C1646   1.398       .  A
C1645      H1653   1.082       .  S
C1646      H1654   1.084       .  S
C1655      C1656   1.407       .  A
C1655      C1660   1.406       .  A
C1656      C1657   1.396       .  A
C1656      H1669   1.083       .  S
C1657      C1658   1.399       .  A
C1657      H1670   1.084       .  S
C1658      C1659   1.400       .  A
C1658      C1661   1.438       .  S
C1659      C1660   1.399       .  A
C1659      H1671   1.083       .  S
C1660      H1672   1.083       .  S
C1661      C1662   1.205       .  T
C1662      C1663   1.438       .  S
C1663      C1664   1.399       .  A
C1663      C1668   1.400       .  A
C1664      C1665   1.397       .  A
C1664      H1673   1.084       .  S
C1665      C1666   1.404       .  A
C1665      H1674   1.083       .  S
C1666      C1667   1.406       .  A
C1667      C1668   1.398       .  A
C1667      H1675   1.082       .  S
C1668      H1676   1.084       .  S
C1677      C1678   1.406       .  A
C1677      C1682   1.408       .  A
C1678      C1679   1.397       .  A
C1678      H1691   1.083       .  S
C1679      C1680   1.399       .  A
C1679      H1692   1.084       .  S
C1680      C1681   1.399       .  A
C1680      C1683   1.438       .  S
C1681      C1682   1.399       .  A
C1681      H1693   1.083       .  S
C1682      H1694   1.083       .  S
C1683      C1684   1.205       .  T
C1684      C1685   1.438       .  S
C1685      C1686   1.401       .  A
C1685      C1690   1.400       .  A
C1686      C1687   1.399       .  A
C1686      H1695   1.083       .  S
C1687      C1688   1.404       .  A
C1687      H1696   1.083       .  S
C1688      C1689   1.403       .  A
C1689      C1690   1.396       .  A
C1689      H1697   1.083       .  S
C1690      H1698   1.084       .  S
C1699      C1700   1.407       .  A
C1699      C1704   1.407       .  A
C1700      C1701   1.394       .  A
C1700      H1713   1.083       .  S
C1701      C1702   1.397       .  A
C1701      H1714   1.084       .  S
C1702      C1703   1.401       .  A
C1702      C1705   1.437       .  S
C1703      C1704   1.401       .  A
C1703      H1715   1.083       .  S
C1704      H1716   1.083       .  S
C1705      C1706   1.204       .  T
C1706      C1707   1.437       .  S
C1707      C1708   1.399       .  A
C1707      C1712   1.400       .  A
C1708      C1709   1.398       .  A
C1708      H1717   1.083       .  S
C1709      C1710   1.406       .  A
C1709      H1718   1.082       .  S
C1710      C1711   1.404       .  A
C1711      C1712   1.396       .  A
C1711      H1719   1.083       .  S
C1712      H1720   1.084       .  S
C1721      C1722   1.405       .  A
C1721      C1726   1.403       .  A
C1722      C1723   1.399       .  A
C1722      H1735   1.083       .  S
C1723      C1724   1.400       .  A
C1723      H1736   1.083       .  S
C1724      C1725   1.398       .  A
C1724      C1727   1.434       .  S
C1725      C1726   1.394       .  A
C1725      H1737   1.084       .  S
C1726      H1738   1.083       .  S
C1727      C1728   1.203       .  T
C1728      C1729   1.435       .  S
C1729      C1730   1.399       .  A
C1729      C1734   1.398       .  A
C1730      C1731   1.396       .  A
C1730      H1739   1.084       .  S
C1731      C1732   1.406       .  A
C1731      H1740   1.083       .  S
C1732      C1733   1.407       .  A
C1733      C1734   1.397       .  A
C1733      H1741   1.083       .  S
C1734      H1742   1.084       .  S
C1743      C1744   1.407       .  A
C1743      C1748   1.408       .  A
C1744      C1745   1.400       .  A
C1744      H1757   1.083       .  S
C1745      C1746   1.400       .  A
C1745      H1758   1.083       .  S
C1746      C1747   1.400       .  A
C1746      C1749   1.443       .  S
C1747      C1748   1.400       .  A
C1747      H1759   1.084       .  S
C1748      H1760   1.083       .  S
C1749      C1750   1.208       .  T
C1750      C1751   1.443       .  S
C1751      C1752   1.401       .  A
C1751      C1756   1.401       .  A
C1752      C1753   1.399       .  A
C1752      H1761   1.083       .  S
C1753      C1754   1.404       .  A
C1753      H1762   1.083       .  S
C1754      C1755   1.404       .  A
C1755      C1756   1.399       .  A
C1755      H1763   1.083       .  S
C1756      H1764   1.083       .  S
C1765      C1766   1.404       .  A
C1765      C1770   1.405       .  A
C1766      C1767   1.395       .  A
C1766      H1779   1.083       .  S
C1767      C1768   1.398       .  A
C1767      H1780   1.084       .  S
C1768      C1769   1.399       .  A
C1768      C1771   1.432       .  S
C1769      C1770   1.395       .  A
C1769      H1781   1.084       .  S
C1770      H1782   1.082       .  S
C1771      C1772   1.201       .  T
C1772      C1773   1.432       .  S
C1773      C1774   1.397       .  A
C1773      C1778   1.399       .  A
C1774      C1775   1.395       .  A
C1774      H1783   1.084       .  S
C1775      C1776   1.407       .  A
C1775      H1784   1.083       .  S
C1776      C1777   1.405       .  A
C1777      C1778   1.395       .  A
C1777      H1785   1.083       .  S
C1778      H1786   1.084       .  S
C1787      C1788   1.405       .  A
C1787      C1792   1.404       .  A
C1788      C1789   1.397       .  A
C1788      H1801   1.082       .  S
C1789      C1790   1.399       .  A
C1789      H1802   1.084       .  S
C1790      C1791   1.398       .  A
C1790      C1793   1.434       .  S
C1791      C1792   1.395       .  A
C1791      H1803   1.084       .  S
C1792      H1804   1.083       .  S
C1793      C1794   1.203       .  T
C1794      C1795   1.434       .  S
C1795      C1796   1.399       .  A
C1795      C1800   1.398       .  A
C1796      C1797   1.397       .  A
C1796      H1805   1.084       .  S
C1797      C1798   1.407       .  A
C1797      H1806   1.083       .  S
C1798      C1799   1.406       .  A
C1799      C1800   1.396       .  A
C1799      H1807   1.083       .  S
C1800      H1808   1.084       .  S
C1809      C1810   1.405       .  A
C1809      C1814   1.404       .  A
C1810      C1811   1.400       .  A
C1810      H1823   1.083       .  S
C1811      C1812   1.402       .  A
C1811      H1824   1.083       .  S
C1812      C1813   1.401       .  A
C1812      C1815   1.443       .  S
C1813      C1814   1.399       .  A
C1813      H1825   1.083       .  S
C1814      H1826   1.083       .  S
C1815      C1816   1.208       .  T
C1816      C1817   1.443       .  S
C1817      C1818   1.401       .  A
C1817      C1822   1.399       .  A
C1818      C1819   1.401       .  A
C1818      H1827   1.083       .  S
C1819      C1820   1.407       .  A
C1819      H1828   1.083       .  S
C1820      C1821   1.408       .  A
C1821      C1822   1.399       .  A
C1821      H1829   1.083       .  S
C1822      H1830   1.084       .  S
C1831      C1832   1.405       .  A
C1831      C1836   1.406       .  A
C1832      C1833   1.398       .  A
C1832      H1845   1.082       .  S
C1833      C1834   1.400       .  A
C1833      H1846   1.084       .  S
C1834      C1835   1.400       .  A
C1834      C1837   1.440       .  S
C1835      C1836   1.399       .  A
C1835      H1847   1.083       .  S
C1836      H1848   1.083       .  S
C1837      C1838   1.206       .  T
C1838      C1839   1.440       .  S
C1839      C1840   1.400       .  A
C1839      C1844   1.400       .  A
C1840      C1841   1.399       .  A
C1840      H1849   1.083       .  S
C1841      C1842   1.408       .  A
C1841      H1850   1.083       .  S
C1842      C1843   1.406       .  A
C1843      C1844   1.398       .  A
C1843      H1851   1.083       .  S
C1844      H1852   1.084       .  S
C1853      C1854   1.407       .  A
C1853      C1858   1.406       .  A
C1854      C1855   1.400       .  A
C1854      H1867   1.082       .  S
C1855      C1856   1.400       .  A
C1855      H1868   1.084       .  S
C1856      C1857   1.400       .  A
C1856      C1859   1.442       .  S
C1857      C1858   1.399       .  A
C1857      H1869   1.083       .  S
C1858      H1870   1.083       .  S
C1859      C1860   1.207       .  T
C1860      C1861   1.442       .  S
C1861      C1862   1.401       .  A
C1861      C1866   1.399       .  A
C1862      C1863   1.401       .  A
C1862      H1871   1.083       .  S
C1863      C1864   1.407       .  A
C1863      H1872   1.083       .  S
C1864      C1865   1.407       .  A
C1865      C1866   1.398       .  A
C1865      H1873   1.083       .  S
C1866      H1874   1.084       .  S
C1875      C1876   1.404       .  A
C1875      C1880   1.404       .  A
C1876      C1877   1.398       .  A
C1876      H1889   1.083       .  S
C1877      C1878   1.400       .  A
C1877      H1890   1.083       .  S
C1878      C1879   1.400       .  A
C1878      C1881   1.438       .  S
C1879      C1880   1.397       .  A
C1879      H1891   1.084       .  S
C1880      H1892   1.083       .  S
C1881      C1882   1.205       .  T
C1882      C1883   1.438       .  S
C1883      C1884   1.399       .  A
C1883      C1888   1.399       .  A
C1884      C1885   1.397       .  A
C1884      H1893   1.084       .  S
C1885      C1886   1.407       .  A
C1885      H1894   1.083       .  S
C1886      C1887   1.406       .  A
C1887      C1888   1.398       .  A
C1887      H1895   1.083       .  S
C1888      H1896   1.084       .  S
C1897      C1898   1.407       .  A
C1897      C1902   1.407       .  A
C1898      C1899   1.398       .  A
C1898      H1911   1.083       .  S
C1899      C1900   1.399       .  A
C1899      H1912   1.084       .  S
C1900      C1901   1.398       .  A
C1900      C1903   1.435       .  S
C1901      C1902   1.396       .  A
C1901      H1913   1.084       .  S
C1902      H1914   1.083       .  S
C1903      C1904   1.203       .  T
C1904      C1905   1.435       .  S
C1905      C1906   1.398       .  A
C1905      C1910   1.400       .  A
C1906      C1907   1.395       .  A
C1906      H1915   1.084       .  S
C1907      C1908   1.403       .  A
C1907      H1916   1.083       .  S
C1908      C1909   1.406       .  A
C1909      C1910   1.398       .  A
C1909      H1917   1.082       .  S
C1910      H1918   1.084       .  S
C1919      C1920   1.405       .  A
C1919      C1924   1.405       .  A
C1920      C1921   1.398       .  A
C1920      H1933   1.082       .  S
C1921      C1922   1.400       .  A
C1921      H1934   1.084       .  S
C1922      C1923   1.398       .  A
C1922      C1925   1.434       .  S
C1923      C1924   1.395       .  A
C1923      H1935   1.084       .  S
C1924      H1936   1.083       .  S
C1925      C1926   1.203       .  T
C1926      C1927   1.434       .  S
C1927      C1928   1.398       .  A
C1927      C1932   1.399       .  A
C1928      C1929   1.396       .  A
C1928      H1937   1.084       .  S
C1929      C1930   1.406       .  A
C1929      H1938   1.083       .  S
C1930      C1931   1.406       .  A
C1931      C1932   1.396       .  A
C1931      H1939   1.083       .  S
C1932      H1940   1.084       .  S
C1941      C1942   1.404       .  A
C1941      C1946   1.405       .  A
C1942      C1943   1.399       .  A
C1942      H1955   1.083       .  S
C1943      C1944   1.401       .  A
C1943      H1956   1.083       .  S
C1944      C1945   1.400       .  A
C1944      C1947   1.441       .  S
C1945      C1946   1.399       .  A
C1945      H1957   1.083       .  S
C1946      H1958   1.083       .  S
C1947      C1948   1.207       .  T
C1948      C1949   1.441       .  S
C1949      C1950   1.400       .  A
C1949      C1954   1.399       .  A
C1950      C1951   1.400       .  A
C1950      H1959   1.083       .  S
C1951      C1952   1.408       .  A
C1951      H1960   1.083       .  S
C1952      C1953   1.407       .  A
C1953      C1954   1.398       .  A
C1953      H1961   1.083       .  S
C1954      H1962   1.084       .  S
C1963      C1964   1.407       .  A
C1963      C1968   1.406       .  A
C1964      C1965   1.399       .  A
C1964      H1977   1.083       .  S
C1965      C1966   1.399       .  A
C1965      H1978   1.083       .  S
C1966      C1967   1.398       .  A
C1966      C1969   1.436       .  S
C1967      C1968   1.395       .  A
C1967      H1979   1.084       .  S
C1968      H1980   1.083       .  S
C1969      C1970   1.204       .  T
C1970      C1971   1.436       .  S
C1971      C1972   1.399       .  A
C1971      C1976   1.400       .  A
C1972      C1973   1.396       .  A
C1972      H1981   1.084       .  S
C1973      C1974   1.404       .  A
C1973      H1982   1.083       .  S
C1974      C1975   1.404       .  A
C1975      C1976   1.398       .  A
C1975      H1983   1.083       .  S
C1976      H1984   1.083       .  S
C1985      C1986   1.407       .  A
C1985      C1990   1.407       .  A
C1986      C1987   1.396       .  A
C1986      H1999   1.083       .  S
C1987      C1988   1.399       .  A
C1987      H2000   1.084       .  S
C1988      C1989   1.400       .  A
C1988      C1991   1.438       .  S
C1989      C1990   1.399       .  A
C1989      H2001   1.083       .  S
C1990      H2002   1.083       .  S
C1991      C1992   1.205       .  T
C1992      C1993   1.438       .  S
C1993      C1994   1.399       .  A
C1993      C1998   1.400       .  A
C1994      C1995   1.397       .  A
C1994      H2003   1.084       .  S
C1995      C1996   1.405       .  A
C1995      H2004   1.083       .  S
C1996      C1997   1.405       .  A
C1997      C1998   1.398       .  A
C1997      H2005   1.082       .  S
C1998      H2006   1.084       .  S
C2007      C2008   1.404       .  A
C2007      C2012   1.405       .  A
C2008      C2009   1.399       .  A
C2008      H2021   1.082       .  S
C2009      C2010   1.401       .  A
C2009      H2022   1.083       .  S
C2010      C2011   1.400       .  A
C2010      C2013   1.439       .  S
C2011      C2012   1.397       .  A
C2011      H2023   1.083       .  S
C2012      H2024   1.083       .  S
C2013      C2014   1.206       .  T
C2014      C2015   1.440       .  S
C2015      C2016   1.400       .  A
C2015      C2020   1.399       .  A
C2016      C2017   1.399       .  A
C2016      H2025   1.084       .  S
C2017      C2018   1.407       .  A
C2017      H2026   1.083       .  S
C2018      C2019   1.407       .  A
C2019      C2020   1.398       .  A
C2019      H2027   1.083       .  S
C2020      H2028   1.084       .  S
C2029      C2030   1.403       .  A
C2029      C2034   1.405       .  A
C2030      C2031   1.394       .  A
C2030      H2043   1.083       .  S
C2031      C2032   1.399       .  A
C2031      H2044   1.084       .  S
C2032      C2033   1.399       .  A
C2032      C2035   1.433       .  S
C2033      C2034   1.397       .  A
C2033      H2045   1.084       .  S
C2034      H2046   1.082       .  S
C2035      C2036   1.202       .  T
C2036      C2037   1.433       .  S
C2037      C2038   1.399       .  A
C2037      C2042   1.398       .  A
C2038      C2039   1.397       .  A
C2038      H2047   1.083       .  S
C2039      C2040   1.407       .  A
C2039      H2048   1.083       .  S
C2040      C2041   1.406       .  A
C2041      C2042   1.394       .  A
C2041      H2049   1.083       .  S
C2042      H2050   1.084       .  S
C2051      C2052   1.407       .  A
C2051      C2056   1.406       .  A
C2052      C2053   1.398       .  A
C2052      H2065   1.083       .  S
C2053      C2054   1.399       .  A
C2053      H2066   1.083       .  S
C2054      C2055   1.398       .  A
C2054      C2057   1.434       .  S
C2055      C2056   1.395       .  A
C2055      H2067   1.084       .  S
C2056      H2068   1.083       .  S
C2057      C2058   1.202       .  T
C2058      C2059   1.434       .  S
C2059      C2060   1.399       .  A
C2059      C2064   1.399       .  A
C2060      C2061   1.395       .  A
C2060      H2069   1.084       .  S
C2061      C2062   1.404       .  A
C2061      H2070   1.083       .  S
C2062      C2063   1.406       .  A
C2063      C2064   1.397       .  A
C2063      H2071   1.082       .  S
C2064      H2072   1.084       .  S
C2073      C2074   1.403       .  A
C2073      C2078   1.404       .  A
C2074      C2075   1.398       .  A
C2074      H2087   1.083       .  S
C2075      C2076   1.401       .  A
C2075      H2088   1.083       .  S
C2076      C2077   1.401       .  A
C2076      C2079   1.440       .  S
C2077      C2078   1.399       .  A
C2077      H2089   1.083       .  S
C2078      H2090   1.083       .  S
C2079      C2080   1.206       .  T
C2080      C2081   1.440       .  S
C2081      C2082   1.400       .  A
C2081      C2086   1.400       .  A
C2082      C2083   1.399       .  A
C2082      H2091   1.084       .  S
C2083      C2084   1.407       .  A
C2083      H2092   1.083       .  S
C2084      C2085   1.406       .  A
C2085      C2086   1.399       .  A
C2085      H2093   1.083       .  S
C2086      H2094   1.084       .  S
C2095      C2096   1.406       .  A
C2095      C2100   1.406       .  A
C2096      C2097   1.399       .  A
C2096      H2109   1.082       .  S
C2097      C2098   1.400       .  A
C2097      H2110   1.084       .  S
C2098      C2099   1.399       .  A
C2098      C2101   1.440       .  S
C2099      C2100   1.397       .  A
C2099      H2111   1.084       .  S
C2100      H2112   1.083       .  S
C2101      C2102   1.206       .  T
C2102      C2103   1.440       .  S
C2103      C2104   1.399       .  A
C2103      C2108   1.400       .  A
C2104      C2105   1.398       .  A
C2104      H2113   1.084       .  S
C2105      C2106   1.407       .  A
C2105      H2114   1.083       .  S
C2106      C2107   1.406       .  A
C2107      C2108   1.399       .  A
C2107      H2115   1.083       .  S
C2108      H2116   1.083       .  S
C2117      C2118   1.407       .  A
C2117      C2122   1.407       .  A
C2118      C2119   1.401       .  A
C2118      H2131   1.083       .  S
C2119      C2120   1.401       .  A
C2119      H2132   1.083       .  S
C2120      C2121   1.398       .  A
C2120      C2123   1.440       .  S
C2121      C2122   1.396       .  A
C2121      H2133   1.084       .  S
C2122      H2134   1.083       .  S
C2123      C2124   1.206       .  T
C2124      C2125   1.440       .  S
C2125      C2126   1.400       .  A
C2125      C2130   1.400       .  A
C2126      C2127   1.398       .  A
C2126      H2135   1.084       .  S
C2127      C2128   1.404       .  A
C2127      H2136   1.083       .  S
C2128      C2129   1.406       .  A
C2129      C2130   1.399       .  A
C2129      H2137   1.082       .  S
C2130      H2138   1.083       .  S
C2139      C2140   1.405       .  A
C2139      C2144   1.404       .  A
C2140      C2141   1.398       .  A
C2140      H2153   1.083       .  S
C2141      C2142   1.400       .  A
C2141      H2154   1.083       .  S
C2142      C2143   1.401       .  A
C2142      C2145   1.441       .  S
C2143      C2144   1.399       .  A
C2143      H2155   1.083       .  S
C2144      H2156   1.083       .  S
C2145      C2146   1.207       .  T
C2146      C2147   1.441       .  S
C2147      C2148   1.399       .  A
C2147      C2152   1.400       .  A
C2148      C2149   1.399       .  A
C2148      H2157   1.084       .  S
C2149      C2150   1.407       .  A
C2149      H2158   1.083       .  S
C2150      C2151   1.407       .  A
C2151      C2152   1.400       .  A
C2151      H2159   1.083       .  S
C2152      H2160   1.083       .  S
C2161      C2162   1.406       .  A
C2161      C2166   1.405       .  A
C2162      C2163   1.400       .  A
C2162      H2175   1.082       .  S
C2163      C2164   1.400       .  A
C2163      H2176   1.083       .  S
C2164      C2165   1.400       .  A
C2164      C2167   1.440       .  S
C2165      C2166   1.397       .  A
C2165      H2177   1.084       .  S
C2166      H2178   1.083       .  S
C2167      C2168   1.206       .  T
C2168      C2169   1.440       .  S
C2169      C2170   1.399       .  A
C2169      C2174   1.400       .  A
C2170      C2171   1.397       .  A
C2170      H2179   1.084       .  S
C2171      C2172   1.406       .  A
C2171      H2180   1.083       .  S
C2172      C2173   1.407       .  A
C2173      C2174   1.400       .  A
C2173      H2181   1.083       .  S
C2174      H2182   1.083       .  S
C2183      C2184   1.407       .  A
C2183      C2188   1.407       .  A
C2184      C2185   1.397       .  A
C2184      H2197   1.083       .  S
C2185      C2186   1.399       .  A
C2185      H2198   1.084       .  S
C2186      C2187   1.400       .  A
C2186      C2189   1.438       .  S
C2187      C2188   1.399       .  A
C2187      H2199   1.083       .  S
C2188      H2200   1.083       .  S
C2189      C2190   1.205       .  T
C2190      C2191   1.438       .  S
C2191      C2192   1.400       .  A
C2191      C2196   1.400       .  A
C2192      C2193   1.399       .  A
C2192      H2201   1.083       .  S
C2193      C2194   1.405       .  A
C2193      H2202   1.083       .  S
C2194      C2195   1.404       .  A
C2195      C2196   1.397       .  A
C2195      H2203   1.083       .  S
C2196      H2204   1.084       .  S
C2205      C2206   1.407       .  A
C2205      C2210   1.407       .  A
C2206      C2207   1.398       .  A
C2206      H2219   1.083       .  S
C2207      C2208   1.399       .  A
C2207      H2220   1.084       .  S
C2208      C2209   1.401       .  A
C2208      C2211   1.442       .  S
C2209      C2210   1.401       .  A
C2209      H2221   1.083       .  S
C2210      H2222   1.083       .  S
C2211      C2212   1.207       .  T
C2212      C2213   1.442       .  S
C2213      C2214   1.401       .  A
C2213      C2218   1.401       .  A
C2214      C2215   1.399       .  A
C2214      H2223   1.083       .  S
C2215      C2216   1.404       .  A
C2215      H2224   1.083       .  S
C2216      C2217   1.404       .  A
C2217      C2218   1.398       .  A
C2217      H2225   1.083       .  S
C2218      H2226   1.083       .  S
C2227      C2228   1.404       .  A
C2227      C2232   1.403       .  A
C2228      C2229   1.395       .  A
C2228      H2241   1.083       .  S
C2229      C2230   1.399       .  A
C2229      H2242   1.084       .  S
C2230      C2231   1.400       .  A
C2230      C2233   1.436       .  S
C2231      C2232   1.398       .  A
C2231      H2243   1.083       .  S
C2232      H2244   1.083       .  S
C2233      C2234   1.204       .  T
C2234      C2235   1.436       .  S
C2235      C2236   1.400       .  A
C2235      C2240   1.398       .  A
C2236      C2237   1.400       .  A
C2236      H2245   1.083       .  S
C2237      C2238   1.407       .  A
C2237      H2246   1.083       .  S
C2238      C2239   1.406       .  A
C2239      C2240   1.394       .  A
C2239      H2247   1.083       .  S
C2240      H2248   1.084       .  S
C2249      C2250   1.405       .  A
C2249      C2254   1.404       .  A
C2250      C2251   1.395       .  A
C2250      H2263   1.082       .  S
C2251      C2252   1.399       .  A
C2251      H2264   1.084       .  S
C2252      C2253   1.399       .  A
C2252      C2255   1.434       .  S
C2253      C2254   1.397       .  A
C2253      H2265   1.083       .  S
C2254      H2266   1.083       .  S
C2255      C2256   1.203       .  T
C2256      C2257   1.434       .  S
C2257      C2258   1.399       .  A
C2257      C2262   1.398       .  A
C2258      C2259   1.398       .  A
C2258      H2267   1.083       .  S
C2259      C2260   1.407       .  A
C2259      H2268   1.083       .  S
C2260      C2261   1.406       .  A
C2261      C2262   1.394       .  A
C2261      H2269   1.083       .  S
C2262      H2270   1.084       .  S
C2271      C2272   1.407       .  A
C2271      C2276   1.407       .  A
C2272      C2273   1.399       .  A
C2272      H2285   1.083       .  S
C2273      C2274   1.400       .  A
C2273      H2286   1.084       .  S
C2274      C2275   1.399       .  A
C2274      C2277   1.439       .  S
C2275      C2276   1.398       .  A
C2275      H2287   1.084       .  S
C2276      H2288   1.083       .  S
C2277      C2278   1.205       .  T
C2278      C2279   1.438       .  S
C2279      C2280   1.401       .  A
C2279      C2284   1.400       .  A
C2280      C2281   1.398       .  A
C2280      H2289   1.083       .  S
C2281      C2282   1.404       .  A
C2281      H2290   1.083       .  S
C2282      C2283   1.404       .  A
C2283      C2284   1.397       .  A
C2283      H2291   1.083       .  S
C2284      H2292   1.083       .  S
C2293      C2294   1.404       .  A
C2293      C2298   1.406       .  A
C2294      C2295   1.395       .  A
C2294      H2307   1.083       .  S
C2295      C2296   1.399       .  A
C2295      H2308   1.084       .  S
C2296      C2297   1.400       .  A
C2296      C2299   1.436       .  S
C2297      C2298   1.399       .  A
C2297      H2309   1.083       .  S
C2298      H2310   1.083       .  S
C2299      C2300   1.204       .  T
C2300      C2301   1.436       .  S
C2301      C2302   1.400       .  A
C2301      C2306   1.397       .  A
C2302      C2303   1.400       .  A
C2302      H2311   1.083       .  S
C2303      C2304   1.407       .  A
C2303      H2312   1.083       .  S
C2304      C2305   1.407       .  A
C2305      C2306   1.394       .  A
C2305      H2313   1.083       .  S
C2306      H2314   1.084       .  S
C2315      C2316   1.404       .  A
C2315      C2320   1.405       .  A
C2316      C2317   1.396       .  A
C2316      H2329   1.083       .  S
C2317      C2318   1.399       .  A
C2317      H2330   1.084       .  S
C2318      C2319   1.399       .  A
C2318      C2321   1.435       .  S
C2319      C2320   1.397       .  A
C2319      H2331   1.084       .  S
C2320      H2332   1.082       .  S
C2321      C2322   1.203       .  T
C2322      C2323   1.435       .  S
C2323      C2324   1.398       .  A
C2323      C2328   1.399       .  A
C2324      C2325   1.396       .  A
C2324      H2333   1.084       .  S
C2325      C2326   1.406       .  A
C2325      H2334   1.083       .  S
C2326      C2327   1.407       .  A
C2327      C2328   1.398       .  A
C2327      H2335   1.083       .  S
C2328      H2336   1.084       .  S
C2337      C2338   1.404       .  A
C2337      C2342   1.404       .  A
C2338      C2339   1.398       .  A
C2338      H2351   1.083       .  S
C2339      C2340   1.400       .  A
C2339      H2352   1.083       .  S
C2340      C2341   1.400       .  A
C2340      C2343   1.439       .  S
C2341      C2342   1.397       .  A
C2341      H2353   1.083       .  S
C2342      H2354   1.083       .  S
C2343      C2344   1.205       .  T
C2344      C2345   1.439       .  S
C2345      C2346   1.398       .  A
C2345      C2350   1.401       .  A
C2346      C2347   1.396       .  A
C2346      H2355   1.084       .  S
C2347      C2348   1.406       .  A
C2347      H2356   1.083       .  S
C2348      C2349   1.408       .  A
C2349      C2350   1.400       .  A
C2349      H2357   1.083       .  S
C2350      H2358   1.083       .  S
C2359      C2360   1.405       .  A
C2359      C2364   1.404       .  A
C2360      C2361   1.398       .  A
C2360      H2373   1.082       .  S
C2361      C2362   1.400       .  A
C2361      H2374   1.084       .  S
C2362      C2363   1.399       .  A
C2362      C2365   1.436       .  S
C2363      C2364   1.396       .  A
C2363      H2375   1.084       .  S
C2364      H2376   1.083       .  S
C2365      C2366   1.204       .  T
C2366      C2367   1.436       .  S
C2367      C2368   1.399       .  A
C2367      C2372   1.399       .  A
C2368      C2369   1.399       .  A
C2368      H2377   1.083       .  S
C2369      C2370   1.407       .  A
C2369      H2378   1.083       .  S
C2370      C2371   1.406       .  A
C2371      C2372   1.396       .  A
C2371      H2379   1.083       .  S
C2372      H2380   1.084       .  S
C2381      C2382   1.407       .  A
C2381      C2386   1.407       .  A
C2382      C2383   1.397       .  A
C2382      H2395   1.083       .  S
C2383      C2384   1.398       .  A
C2383      H2396   1.084       .  S
C2384      C2385   1.400       .  A
C2384      C2387   1.438       .  S
C2385      C2386   1.399       .  A
C2385      H2397   1.084       .  S
C2386      H2398   1.083       .  S
C2387      C2388   1.205       .  T
C2388      C2389   1.438       .  S
C2389      C2390   1.400       .  A
C2389      C2394   1.399       .  A
C2390      C2391   1.398       .  A
C2390      H2399   1.084       .  S
C2391      C2392   1.405       .  A
C2391      H2400   1.082       .  S
C2392      C2393   1.406       .  A
C2393      C2394   1.397       .  A
C2393      H2401   1.083       .  S
C2394      H2402   1.084       .  S
C2403      C2404   1.405       .  A
C2403      C2408   1.404       .  A
C2404      C2405   1.399       .  A
C2404      H2417   1.083       .  S
C2405      C2406   1.401       .  A
C2405      H2418   1.083       .  S
C2406      C2407   1.401       .  A
C2406      C2409   1.442       .  S
C2407      C2408   1.399       .  A
C2407      H2419   1.083       .  S
C2408      H2420   1.083       .  S
C2409      C2410   1.207       .  T
C2410      C2411   1.442       .  S
C2411      C2412   1.400       .  A
C2411      C2416   1.400       .  A
C2412      C2413   1.399       .  A
C2412      H2421   1.083       .  S
C2413      C2414   1.407       .  A
C2413      H2422   1.083       .  S
C2414      C2415   1.408       .  A
C2415      C2416   1.400       .  A
C2415      H2423   1.083       .  S
C2416      H2424   1.083       .  S
C2425      C2426   1.408       .  A
C2425      C2430   1.407       .  A
C2426      C2427   1.401       .  A
C2426      H2439   1.083       .  S
C2427      C2428   1.401       .  A
C2427      H2440   1.083       .  S
C2428      C2429   1.399       .  A
C2428      C2431   1.440       .  S
C2429      C2430   1.396       .  A
C2429      H2441   1.084       .  S
C2430      H2442   1.083       .  S
C2431      C2432   1.206       .  T
C2432      C2433   1.440       .  S
C2433      C2434   1.399       .  A
C2433      C2438   1.401       .  A
C2434      C2435   1.396       .  A
C2434      H2443   1.084       .  S
C2435      C2436   1.404       .  A
C2435      H2444   1.083       .  S
C2436      C2437   1.407       .  A
C2437      C2438   1.401       .  A
C2437      H2445   1.082       .  S
C2438      H2446   1.083       .  S
C2447      C2448   1.406       .  A
C2447      C2452   1.408       .  A
C2448      C2449   1.398       .  A
C2448      H2461   1.083       .  S
C2449      C2450   1.400       .  A
C2449      H2462   1.084       .  S
C2450      C2451   1.399       .  A
C2450      C2453   1.439       .  S
C2451      C2452   1.399       .  A
C2451      H2463   1.083       .  S
C2452      H2464   1.083       .  S
C2453      C2454   1.206       .  T
C2454      C2455   1.439       .  S
C2455      C2456   1.401       .  A
C2455      C2460   1.399       .  A
C2456      C2457   1.400       .  A
C2456      H2465   1.083       .  S
C2457      C2458   1.407       .  A
C2457      H2466   1.082       .  S
C2458      C2459   1.405       .  A
C2459      C2460   1.396       .  A
C2459      H2467   1.083       .  S
C2460      H2468   1.084       .  S
C2469      C2470   1.407       .  A
C2469      C2474   1.406       .  A
C2470      C2471   1.399       .  A
C2470      H2483   1.083       .  S
C2471      C2472   1.399       .  A
C2471      H2484   1.084       .  S
C2472      C2473   1.400       .  A
C2472      C2475   1.440       .  S
C2473      C2474   1.399       .  A
C2473      H2485   1.084       .  S
C2474      H2486   1.083       .  S
C2475      C2476   1.206       .  T
C2476      C2477   1.439       .  S
C2477      C2478   1.401       .  A
C2477      C2482   1.400       .  A
C2478      C2479   1.399       .  A
C2478      H2487   1.083       .  S
C2479      C2480   1.404       .  A
C2479      H2488   1.083       .  S
C2480      C2481   1.403       .  A
C2481      C2482   1.397       .  A
C2481      H2489   1.083       .  S
C2482      H2490   1.083       .  S
C2491      C2492   1.405       .  A
C2491      C2496   1.406       .  A
C2492      C2493   1.394       .  A
C2492      H2505   1.083       .  S
C2493      C2494   1.398       .  A
C2493      H2506   1.084       .  S
C2494      C2495   1.399       .  A
C2494      C2497   1.434       .  S
C2495      C2496   1.398       .  A
C2495      H2507   1.083       .  S
C2496      H2508   1.083       .  S
C2497      C2498   1.202       .  T
C2498      C2499   1.434       .  S
C2499      C2500   1.399       .  A
C2499      C2504   1.399       .  A
C2500      C2501   1.397       .  A
C2500      H2509   1.083       .  S
C2501      C2502   1.406       .  A
C2501      H2510   1.082       .  S
C2502      C2503   1.404       .  A
C2503      C2504   1.395       .  A
C2503      H2511   1.083       .  S
C2504      H2512   1.084       .  S
C2513      C2514   1.406       .  A
C2513      C2518   1.404       .  A
C2514      C2515   1.398       .  A
C2514      H2527   1.082       .  S
C2515      C2516   1.399       .  A
C2515      H2528   1.083       .  S
C2516      C2517   1.398       .  A
C2516      C2519   1.434       .  S
C2517      C2518   1.395       .  A
C2517      H2529   1.084       .  S
C2518      H2530   1.083       .  S
C2519      C2520   1.203       .  T
C2520      C2521   1.435       .  S
C2521      C2522   1.398       .  A
C2521      C2526   1.399       .  A
C2522      C2523   1.395       .  A
C2522      H2531   1.084       .  S
C2523      C2524   1.406       .  A
C2523      H2532   1.083       .  S
C2524      C2525   1.406       .  A
C2525      C2526   1.398       .  A
C2525      H2533   1.083       .  S
C2526      H2534   1.083       .  S
C2535      C2536   1.403       .  A
C2535      C2540   1.404       .  A
C2536      C2537   1.398       .  A
C2536      H2549   1.083       .  S
C2537      C2538   1.401       .  A
C2537      H2550   1.083       .  S
C2538      C2539   1.401       .  A
C2538      C2541   1.440       .  S
C2539      C2540   1.399       .  A
C2539      H2551   1.083       .  S
C2540      H2552   1.083       .  S
C2541      C2542   1.206       .  T
C2542      C2543   1.440       .  S
C2543      C2544   1.399       .  A
C2543      C2548   1.400       .  A
C2544      C2545   1.398       .  A
C2544      H2553   1.084       .  S
C2545      C2546   1.407       .  A
C2545      H2554   1.083       .  S
C2546      C2547   1.407       .  A
C2547      C2548   1.399       .  A
C2547      H2555   1.083       .  S
C2548      H2556   1.083       .  S
C2557      C2558   1.403       .  A
C2557      C2562   1.404       .  A
C2558      C2559   1.395       .  A
C2558      H2571   1.083       .  S
C2559      C2560   1.399       .  A
C2559      H2572   1.084       .  S
C2560      C2561   1.399       .  A
C2560      C2563   1.434       .  S
C2561      C2562   1.397       .  A
C2561      H2573   1.084       .  S
C2562      H2574   1.083       .  S
C2563      C2564   1.202       .  T
C2564      C2565   1.434       .  S
C2565      C2566   1.398       .  A
C2565      C2570   1.399       .  A
C2566      C2567   1.396       .  A
C2566      H2575   1.084       .  S
C2567      C2568   1.407       .  A
C2567      H2576   1.083       .  S
C2568      C2569   1.406       .  A
C2569      C2570   1.396       .  A
C2569      H2577   1.083       .  S
C2570      H2578   1.084       .  S
C2579      C2580   1.402       .  A
C2579      C2584   1.405       .  A
C2580      C2581   1.396       .  A
C2580      H2593   1.083       .  S
C2581      C2582   1.400       .  A
C2581      H2594   1.084       .  S
C2582      C2583   1.398       .  A
C2582      C2585   1.433       .  S
C2583      C2584   1.396       .  A
C2583      H2595   1.084       .  S
C2584      H2596   1.083       .  S
C2585      C2586   1.202       .  T
C2586      C2587   1.433       .  S
C2587      C2588   1.400       .  A
C2587      C2592   1.397       .  A
C2588      C2589   1.399       .  A
C2588      H2597   1.083       .  S
C2589      C2590   1.406       .  A
C2589      H2598   1.083       .  S
C2590      C2591   1.406       .  A
C2591      C2592   1.393       .  A
C2591      H2599   1.083       .  S
C2592      H2600   1.084       .  S
C2601      C2602   1.404       .  A
C2601      C2606   1.404       .  A
C2602      C2603   1.398       .  A
C2602      H2615   1.083       .  S
C2603      C2604   1.400       .  A
C2603      H2616   1.083       .  S
C2604      C2605   1.401       .  A
C2604      C2607   1.440       .  S
C2605      C2606   1.399       .  A
C2605      H2617   1.083       .  S
C2606      H2618   1.083       .  S
C2607      C2608   1.206       .  T
C2608      C2609   1.440       .  S
C2609      C2610   1.401       .  A
C2609      C2614   1.399       .  A
C2610      C2611   1.400       .  A
C2610      H2619   1.083       .  S
C2611      C2612   1.407       .  A
C2611      H2620   1.083       .  S
C2612      C2613   1.407       .  A
C2613      C2614   1.397       .  A
C2613      H2621   1.083       .  S
C2614      H2622   1.084       .  S
C2623      C2624   1.407       .  A
C2623      C2628   1.406       .  A
C2624      C2625   1.396       .  A
C2624      H2637   1.083       .  S
C2625      C2626   1.398       .  A
C2625      H2638   1.084       .  S
C2626      C2627   1.399       .  A
C2626      C2629   1.436       .  S
C2627      C2628   1.398       .  A
C2627      H2639   1.083       .  S
C2628      H2640   1.083       .  S
C2629      C2630   1.203       .  T
C2630      C2631   1.435       .  S
C2631      C2632   1.399       .  A
C2631      C2636   1.400       .  A
C2632      C2633   1.396       .  A
C2632      H2641   1.083       .  S
C2633      C2634   1.404       .  A
C2633      H2642   1.083       .  S
C2634      C2635   1.405       .  A
C2635      C2636   1.397       .  A
C2635      H2643   1.082       .  S
C2636      H2644   1.084       .  S
C2645      C2646   1.403       .  A
C2645      C2650   1.405       .  A
C2646      C2647   1.395       .  A
C2646      H2659   1.083       .  S
C2647      C2648   1.398       .  A
C2647      H2660   1.084       .  S
C2648      C2649   1.399       .  A
C2648      C2651   1.433       .  S
C2649      C2650   1.397       .  A
C2649      H2661   1.084       .  S
C2650      H2662   1.083       .  S
C2651      C2652   1.202       .  T
C2652      C2653   1.433       .  S
C2653      C2654   1.398       .  A
C2653      C2658   1.399       .  A
C2654      C2655   1.394       .  A
C2654      H2663   1.084       .  S
C2655      C2656   1.406       .  A
C2655      H2664   1.083       .  S
C2656      C2657   1.406       .  A
C2657      C2658   1.397       .  A
C2657      H2665   1.083       .  S
C2658      H2666   1.084       .  S
C2667      C2668   1.405       .  A
C2667      C2672   1.404       .  A
C2668      C2669   1.399       .  A
C2668      H2681   1.083       .  S
C2669      C2670   1.401       .  A
C2669      H2682   1.083       .  S
C2670      C2671   1.401       .  A
C2670      C2673   1.441       .  S
C2671      C2672   1.398       .  A
C2671      H2683   1.083       .  S
C2672      H2684   1.083       .  S
C2673      C2674   1.207       .  T
C2674      C2675   1.442       .  S
C2675      C2676   1.399       .  A
C2675      C2680   1.401       .  A
C2676      C2677   1.398       .  A
C2676      H2685   1.084       .  S
C2677      C2678   1.407       .  A
C2677      H2686   1.083       .  S
C2678      C2679   1.407       .  A
C2679      C2680   1.401       .  A
C2679      H2687   1.083       .  S
C2680      H2688   1.083       .  S
C2689      C2690   1.407       .  A
C2689      C2694   1.407       .  A
C2690      C2691   1.399       .  A
C2690      H2703   1.083       .  S
C2691      C2692   1.400       .  A
C2691      H2704   1.083       .  S
C2692      C2693   1.398       .  A
C2692      C2695   1.437       .  S
C2693      C2694   1.396       .  A
C2693      H2705   1.084       .  S
C2694      H2706   1.083       .  S
C2695      C2696   1.205       .  T
C2696      C2697   1.437       .  S
C2697      C2698   1.399       .  A
C2697      C2702   1.400       .  A
C2698      C2699   1.396       .  A
C2698      H2707   1.084       .  S
C2699      C2700   1.404       .  A
C2699      H2708   1.083       .  S
C2700      C2701   1.405       .  A
C2701      C2702   1.399       .  A
C2701      H2709   1.082       .  S
C2702      H2710   1.083       .  S
C2711      C2712   1.407       .  A
C2711      C2716   1.406       .  A
C2712      C2713   1.399       .  A
C2712      H2725   1.083       .  S
C2713      C2714   1.400       .  A
C2713      H2726   1.083       .  S
C2714      C2715   1.397       .  A
C2714      C2717   1.435       .  S
C2715      C2716   1.394       .  A
C2715      H2727   1.084       .  S
C2716      H2728   1.083       .  S
C2717      C2718   1.203       .  T
C2718      C2719   1.435       .  S
C2719      C2720   1.400       .  A
C2719      C2724   1.399       .  A
C2720      C2721   1.396       .  A
C2720      H2729   1.084       .  S
C2721      C2722   1.403       .  A
C2721      H2730   1.083       .  S
C2722      C2723   1.405       .  A
C2723      C2724   1.397       .  A
C2723      H2731   1.082       .  S
C2724      H2732   1.084       .  S
C2733      C2734   1.407       .  A
C2733      C2738   1.407       .  A
C2734      C2735   1.400       .  A
C2734      H2747   1.083       .  S
C2735      C2736   1.400       .  A
C2735      H2748   1.083       .  S
C2736      C2737   1.399       .  A
C2736      C2739   1.441       .  S
C2737      C2738   1.398       .  A
C2737      H2749   1.084       .  S
C2738      H2750   1.083       .  S
C2739      C2740   1.207       .  T
C2740      C2741   1.441       .  S
C2741      C2742   1.400       .  A
C2741      C2746   1.402       .  A
C2742      C2743   1.397       .  A
C2742      H2751   1.083       .  S
C2743      C2744   1.404       .  A
C2743      H2752   1.083       .  S
C2744      C2745   1.404       .  A
C2745      C2746   1.400       .  A
C2745      H2753   1.083       .  S
C2746      H2754   1.083       .  S
C2755      C2756   1.406       .  A
C2755      C2760   1.407       .  A
C2756      C2757   1.395       .  A
C2756      H2769   1.083       .  S
C2757      C2758   1.399       .  A
C2757      H2770   1.084       .  S
C2758      C2759   1.399       .  A
C2758      C2761   1.437       .  S
C2759      C2760   1.399       .  A
C2759      H2771   1.083       .  S
C2760      H2772   1.083       .  S
C2761      C2762   1.204       .  T
C2762      C2763   1.437       .  S
C2763      C2764   1.400       .  A
C2763      C2768   1.399       .  A
C2764      C2765   1.400       .  A
C2764      H2773   1.083       .  S
C2765      C2766   1.407       .  A
C2765      H2774   1.082       .  S
C2766      C2767   1.404       .  A
C2767      C2768   1.395       .  A
C2767      H2775   1.083       .  S
C2768      H2776   1.084       .  S
C2777      C2778   1.408       .  A
C2777      C2782   1.407       .  A
C2778      C2779   1.401       .  A
C2778      H2791   1.083       .  S
C2779      C2780   1.400       .  A
C2779      H2792   1.083       .  S
C2780      C2781   1.398       .  A
C2780      C2783   1.439       .  S
C2781      C2782   1.396       .  A
C2781      H2793   1.084       .  S
C2782      H2794   1.083       .  S
C2783      C2784   1.205       .  T
C2784      C2785   1.439       .  S
C2785      C2786   1.400       .  A
C2785      C2790   1.400       .  A
C2786      C2787   1.396       .  A
C2786      H2795   1.084       .  S
C2787      C2788   1.403       .  A
C2787      H2796   1.083       .  S
C2788      C2789   1.406       .  A
C2789      C2790   1.399       .  A
C2789      H2797   1.082       .  S
C2790      H2798   1.083       .  S
C2799      C2800   1.407       .  A
C2799      C2804   1.407       .  A
C2800      C2801   1.398       .  A
C2800      H2813   1.083       .  S
C2801      C2802   1.399       .  A
C2801      H2814   1.084       .  S
C2802      C2803   1.399       .  A
C2802      C2805   1.438       .  S
C2803      C2804   1.398       .  A
C2803      H2815   1.084       .  S
C2804      H2816   1.083       .  S
C2805      C2806   1.205       .  T
C2806      C2807   1.438       .  S
C2807      C2808   1.400       .  A
C2807      C2812   1.400       .  A
C2808      C2809   1.397       .  A
C2808      H2817   1.083       .  S
C2809      C2810   1.403       .  A
C2809      H2818   1.083       .  S
C2810      C2811   1.405       .  A
C2811      C2812   1.398       .  A
C2811      H2819   1.083       .  S
C2812      H2820   1.083       .  S
C2821      C2822   1.401       .  A
C2821      C2826   1.405       .  A
C2822      C2823   1.395       .  A
C2822      H2835   1.083       .  S
C2823      C2824   1.399       .  A
C2823      H2836   1.084       .  S
C2824      C2825   1.398       .  A
C2824      C2827   1.431       .  S
C2825      C2826   1.395       .  A
C2825      H2837   1.084       .  S
C2826      H2838   1.083       .  S
C2827      C2828   1.201       .  T
C2828      C2829   1.431       .  S
C2829      C2830   1.397       .  A
C2829      C2834   1.399       .  A
C2830      C2831   1.395       .  A
C2830      H2839   1.084       .  S
C2831      C2832   1.407       .  A
C2831      H2840   1.083       .  S
C2832      C2833   1.405       .  A
C2833      C2834   1.396       .  A
C2833      H2841   1.083       .  S
C2834      H2842   1.084       .  S
C2843      C2844   1.403       .  A
C2843      C2848   1.405       .  A
C2844      C2845   1.395       .  A
C2844      H2857   1.083       .  S
C2845      C2846   1.399       .  A
C2845      H2858   1.084       .  S
C2846      C2847   1.398       .  A
C2846      C2849   1.431       .  S
C2847      C2848   1.395       .  A
C2847      H2859   1.084       .  S
C2848      H2860   1.082       .  S
C2849      C2850   1.201       .  T
C2850      C2851   1.431       .  S
C2851      C2852   1.397       .  A
C2851      C2856   1.399       .  A
C2852      C2853   1.393       .  A
C2852      H2861   1.084       .  S
C2853      C2854   1.405       .  A
C2853      H2862   1.083       .  S
C2854      C2855   1.406       .  A
C2855      C2856   1.398       .  A
C2855      H2863   1.083       .  S
C2856      H2864   1.083       .  S
C2865      C2866   1.404       .  A
C2865      C2870   1.403       .  A
C2866      C2867   1.398       .  A
C2866      H2879   1.083       .  S
C2867      C2868   1.401       .  A
C2867      H2880   1.083       .  S
C2868      C2869   1.400       .  A
C2868      C2871   1.438       .  S
C2869      C2870   1.397       .  A
C2869      H2881   1.084       .  S
C2870      H2882   1.083       .  S
C2871      C2872   1.205       .  T
C2872      C2873   1.438       .  S
C2873      C2874   1.399       .  A
C2873      C2878   1.400       .  A
C2874      C2875   1.397       .  A
C2874      H2883   1.084       .  S
C2875      C2876   1.407       .  A
C2875      H2884   1.083       .  S
C2876      C2877   1.407       .  A
C2877      C2878   1.399       .  A
C2877      H2885   1.083       .  S
C2878      H2886   1.083       .  S
C2887      C2888   1.404       .  A
C2887      C2892   1.405       .  A
C2888      C2889   1.396       .  A
C2888      H2901   1.083       .  S
C2889      C2890   1.399       .  A
C2889      H2902   1.084       .  S
C2890      C2891   1.400       .  A
C2890      C2893   1.437       .  S
C2891      C2892   1.398       .  A
C2891      H2903   1.084       .  S
C2892      H2904   1.083       .  S
C2893      C2894   1.204       .  T
C2894      C2895   1.437       .  S
C2895      C2896   1.399       .  A
C2895      C2900   1.399       .  A
C2896      C2897   1.397       .  A
C2896      H2905   1.084       .  S
C2897      C2898   1.406       .  A
C2897      H2906   1.083       .  S
C2898      C2899   1.407       .  A
C2899      C2900   1.398       .  A
C2899      H2907   1.083       .  S
C2900      H2908   1.083       .  S
C2909      C2910   1.405       .  A
C2909      C2914   1.405       .  A
C2910      C2911   1.396       .  A
C2910      H2923   1.082       .  S
C2911      C2912   1.399       .  A
C2911      H2924   1.084       .  S
C2912      C2913   1.399       .  A
C2912      C2915   1.436       .  S
C2913      C2914   1.397       .  A
C2913      H2925   1.083       .  S
C2914      H2926   1.083       .  S
C2915      C2916   1.204       .  T
C2916      C2917   1.436       .  S
C2917      C2918   1.400       .  A
C2917      C2922   1.398       .  A
C2918      C2919   1.398       .  A
C2918      H2927   1.083       .  S
C2919      C2920   1.406       .  A
C2919      H2928   1.083       .  S
C2920      C2921   1.407       .  A
C2921      C2922   1.395       .  A
C2921      H2929   1.083       .  S
C2922      H2930   1.084       .  S
C2931      C2932   1.406       .  A
C2931      C2936   1.407       .  A
C2932      C2933   1.397       .  A
C2932      H2945   1.083       .  S
C2933      C2934   1.399       .  A
C2933      H2946   1.084       .  S
C2934      C2935   1.401       .  A
C2934      C2937   1.441       .  S
C2935      C2936   1.401       .  A
C2935      H2947   1.083       .  S
C2936      H2948   1.083       .  S
C2937      C2938   1.207       .  T
C2938      C2939   1.441       .  S
C2939      C2940   1.401       .  A
C2939      C2944   1.401       .  A
C2940      C2941   1.399       .  A
C2940      H2949   1.083       .  S
C2941      C2942   1.405       .  A
C2941      H2950   1.083       .  S
C2942      C2943   1.404       .  A
C2943      C2944   1.398       .  A
C2943      H2951   1.082       .  S
C2944      H2952   1.084       .  S
C2953      C2954   1.406       .  A
C2953      C2958   1.406       .  A
C2954      C2955   1.396       .  A
C2954      H2967   1.083       .  S
C2955      C2956   1.398       .  A
C2955      H2968   1.084       .  S
C2956      C2957   1.398       .  A
C2956      C2959   1.432       .  S
C2957      C2958   1.395       .  A
C2957      H2969   1.084       .  S
C2958      H2970   1.083       .  S
C2959      C2960   1.201       .  T
C2960      C2961   1.432       .  S
C2961      C2962   1.398       .  A
C2961      C2966   1.399       .  A
C2962      C2963   1.394       .  A
C2962      H2971   1.084       .  S
C2963      C2964   1.403       .  A
C2963      H2972   1.083       .  S
C2964      C2965   1.405       .  A
C2965      C2966   1.396       .  A
C2965      H2973   1.082       .  S
C2966      H2974   1.084       .  S
C2975      C2976   1.405       .  A
C2975      C2980   1.407       .  A
C2976      C2977   1.393       .  A
C2976      H2989   1.083       .  S
C2977      C2978   1.397       .  A
C2977      H2990   1.084       .  S
C2978      C2979   1.399       .  A
C2978      C2981   1.431       .  S
C2979      C2980   1.397       .  A
C2979      H2991   1.083       .  S
C2980      H2992   1.083       .  S
C2981      C2982   1.201       .  T
C2982      C2983   1.431       .  S
C2983      C2984   1.398       .  A
C2983      C2988   1.399       .  A
C2984      C2985   1.396       .  A
C2984      H2993   1.084       .  S
C2985      C2986   1.405       .  A
C2985      H2994   1.083       .  S
C2986      C2987   1.402       .  A
C2987      C2988   1.394       .  A
C2987      H2995   1.083       .  S
C2988      H2996   1.084       .  S
C2997      C2998   1.405       .  A
C2997      C3002   1.403       .  A
C2998      C2999   1.401       .  A
C2998      H3011   1.083       .  S
C2999      C3000   1.402       .  A
C2999      H3012   1.083       .  S
C3000      C3001   1.400       .  A
C3000      C3003   1.440       .  S
C3001      C3002   1.396       .  A
C3001      H3013   1.084       .  S
C3002      H3014   1.083       .  S
C3003      C3004   1.206       .  T
C3004      C3005   1.441       .  S
C3005      C3006   1.400       .  A
C3005      C3010   1.400       .  A
C3006      C3007   1.398       .  A
C3006      H3015   1.084       .  S
C3007      C3008   1.406       .  A
C3007      H3016   1.083       .  S
C3008      C3009   1.408       .  A
C3009      C3010   1.400       .  A
C3009      H3017   1.083       .  S
C3010      H3018   1.083       .  S
C3019      C3020   1.407       .  A
C3019      C3024   1.406       .  A
C3020      C3021   1.397       .  A
C3020      H3033   1.083       .  S
C3021      C3022   1.399       .  A
C3021      H3034   1.084       .  S
C3022      C3023   1.400       .  A
C3022      C3025   1.438       .  S
C3023      C3024   1.398       .  A
C3023      H3035   1.084       .  S
C3024      H3036   1.083       .  S
C3025      C3026   1.205       .  T
C3026      C3027   1.438       .  S
C3027      C3028   1.400       .  A
C3027      C3032   1.400       .  A
C3028      C3029   1.398       .  A
C3028      H3037   1.084       .  S
C3029      C3030   1.406       .  A
C3029      H3038   1.082       .  S
C3030      C3031   1.405       .  A
C3031      C3032   1.397       .  A
C3031      H3039   1.083       .  S
C3032      H3040   1.083       .  S
C3041      C3042   1.407       .  A
C3041      C3046   1.407       .  A
C3042      C3043   1.397       .  A
C3042      H3055   1.083       .  S
C3043      C3044   1.399       .  A
C3043      H3056   1.084       .  S
C3044      C3045   1.400       .  A
C3044      C3047   1.439       .  S
C3045      C3046   1.400       .  A
C3045      H3057   1.083       .  S
C3046      H3058   1.083       .  S
C3047      C3048   1.205       .  T
C3048      C3049   1.439       .  S
C3049      C3050   1.399       .  A
C3049      C3054   1.400       .  A
C3050      C3051   1.397       .  A
C3050      H3059   1.084       .  S
C3051      C3052   1.405       .  A
C3051      H3060   1.083       .  S
C3052      C3053   1.406       .  A
C3053      C3054   1.399       .  A
C3053      H3061   1.082       .  S
C3054      H3062   1.084       .  S
C3063      C3064   1.404       .  A
C3063      C3068   1.403       .  A
C3064      C3065   1.399       .  A
C3064      H3077   1.083       .  S
C3065      C3066   1.401       .  A
C3065      H3078   1.083       .  S
C3066      C3067   1.400       .  A
C3066      C3069   1.439       .  S
C3067      C3068   1.397       .  A
C3067      H3079   1.084       .  S
C3068      H3080   1.083       .  S
C3069      C3070   1.206       .  T
C3070      C3071   1.439       .  S
C3071      C3072   1.399       .  A
C3071      C3076   1.400       .  A
C3072      C3073   1.397       .  A
C3072      H3081   1.084       .  S
C3073      C3074   1.407       .  A
C3073      H3082   1.083       .  S
C3074      C3075   1.407       .  A
C3075      C3076   1.399       .  A
C3075      H3083   1.083       .  S
C3076      H3084   1.083       .  S
C3085      C3086   1.408       .  A
C3085      C3090   1.406       .  A
C3086      C3087   1.400       .  A
C3086      H3099   1.083       .  S
C3087      C3088   1.400       .  A
C3087      H3100   1.083       .  S
C3088      C3089   1.399       .  A
C3088      C3091   1.440       .  S
C3089      C3090   1.397       .  A
C3089      H3101   1.084       .  S
C3090      H3102   1.083       .  S
C3091      C3092   1.206       .  T
C3092      C3093   1.440       .  S
C3093      C3094   1.399       .  A
C3093      C3098   1.401       .  A
C3094      C3095   1.396       .  A
C3094      H3103   1.084       .  S
C3095      C3096   1.405       .  A
C3095      H3104   1.083       .  S
C3096      C3097   1.407       .  A
C3097      C3098   1.401       .  A
C3097      H3105   1.082       .  S
C3098      H3106   1.083       .  S
C3107      C3108   1.407       .  A
C3107      C3112   1.407       .  A
C3108      C3109   1.396       .  A
C3108      H3121   1.083       .  S
C3109      C3110   1.399       .  A
C3109      H3122   1.084       .  S
C3110      C3111   1.401       .  A
C3110      C3113   1.440       .  S
C3111      C3112   1.401       .  A
C3111      H3123   1.083       .  S
C3112      H3124   1.083       .  S
C3113      C3114   1.206       .  T
C3114      C3115   1.440       .  S
C3115      C3116   1.400       .  A
C3115      C3120   1.399       .  A
C3116      C3117   1.400       .  A
C3116      H3125   1.083       .  S
C3117      C3118   1.407       .  A
C3117      H3126   1.082       .  S
C3118      C3119   1.405       .  A
C3119      C3120   1.397       .  A
C3119      H3127   1.083       .  S
C3120      H3128   1.084       .  S
C3129      C3130   1.407       .  A
C3129      C3134   1.407       .  A
C3130      C3131   1.397       .  A
C3130      H3143   1.083       .  S
C3131      C3132   1.399       .  A
C3131      H3144   1.084       .  S
C3132      C3133   1.400       .  A
C3132      C3135   1.439       .  S
C3133      C3134   1.400       .  A
C3133      H3145   1.083       .  S
C3134      H3146   1.083       .  S
C3135      C3136   1.206       .  T
C3136      C3137   1.439       .  S
C3137      C3138   1.401       .  A
C3137      C3142   1.400       .  A
C3138      C3139   1.399       .  A
C3138      H3147   1.083       .  S
C3139      C3140   1.404       .  A
C3139      H3148   1.083       .  S
C3140      C3141   1.403       .  A
C3141      C3142   1.397       .  A
C3141      H3149   1.083       .  S
C3142      H3150   1.083       .  S
C3151      C3152   1.405       .  A
C3151      C3156   1.404       .  A
C3152      C3153   1.396       .  A
C3152      H3165   1.082       .  S
C3153      C3154   1.399       .  A
C3153      H3166   1.084       .  S
C3154      C3155   1.399       .  A
C3154      C3157   1.435       .  S
C3155      C3156   1.396       .  A
C3155      H3167   1.084       .  S
C3156      H3168   1.083       .  S
C3157      C3158   1.203       .  T
C3158      C3159   1.435       .  S
C3159      C3160   1.398       .  A
C3159      C3164   1.399       .  A
C3160      C3161   1.396       .  A
C3160      H3169   1.084       .  S
C3161      C3162   1.407       .  A
C3161      H3170   1.083       .  S
C3162      C3163   1.406       .  A
C3163      C3164   1.397       .  A
C3163      H3171   1.083       .  S
C3164      H3172   1.084       .  S
C3173      C3174   1.406       .  A
C3173      C3178   1.406       .  A
C3174      C3175   1.399       .  A
C3174      H3187   1.083       .  S
C3175      C3176   1.400       .  A
C3175      H3188   1.083       .  S
C3176      C3177   1.398       .  A
C3176      C3179   1.434       .  S
C3177      C3178   1.394       .  A
C3177      H3189   1.084       .  S
C3178      H3190   1.083       .  S
C3179      C3180   1.203       .  T
C3180      C3181   1.434       .  S
C3181      C3182   1.399       .  A
C3181      C3186   1.399       .  A
C3182      C3183   1.394       .  A
C3182      H3191   1.084       .  S
C3183      C3184   1.403       .  A
C3183      H3192   1.083       .  S
C3184      C3185   1.406       .  A
C3185      C3186   1.398       .  A
C3185      H3193   1.082       .  S
C3186      H3194   1.083       .  S
C3195      C3196   1.404       .  A
C3195      C3200   1.404       .  A
C3196      C3197   1.398       .  A
C3196      H3209   1.082       .  S
C3197      C3198   1.401       .  A
C3197      H3210   1.084       .  S
C3198      C3199   1.401       .  A
C3198      C3201   1.440       .  S
C3199      C3200   1.398       .  A
C3199      H3211   1.083       .  S
C3200      H3212   1.083       .  S
C3201      C3202   1.206       .  T
C3202      C3203   1.440       .  S
C3203      C3204   1.401       .  A
C3203      C3208   1.398       .  A
C3204      C3205   1.401       .  A
C3204      H3213   1.083       .  S
C3205      C3206   1.408       .  A
C3205      H3214   1.083       .  S
C3206      C3207   1.406       .  A
C3207      C3208   1.396       .  A
C3207      H3215   1.083       .  S
C3208      H3216   1.084       .  S
C3217      C3218   1.407       .  A
C3217      C3222   1.406       .  A
C3218      C3219   1.395       .  A
C3218      H3231   1.083       .  S
C3219      C3220   1.398       .  A
C3219      H3232   1.084       .  S
C3220      C3221   1.399       .  A
C3220      C3223   1.435       .  S
C3221      C3222   1.398       .  A
C3221      H3233   1.084       .  S
C3222      H3234   1.083       .  S
C3223      C3224   1.203       .  T
C3224      C3225   1.435       .  S
C3225      C3226   1.399       .  A
C3225      C3230   1.399       .  A
C3226      C3227   1.397       .  A
C3226      H3235   1.084       .  S
C3227      C3228   1.405       .  A
C3227      H3236   1.082       .  S
C3228      C3229   1.405       .  A
C3229      C3230   1.396       .  A
C3229      H3237   1.083       .  S
C3230      H3238   1.084       .  S
C3239      C3240   1.407       .  A
C3239      C3244   1.406       .  A
C3240      C3241   1.399       .  A
C3240      H3253   1.083       .  S
C3241      C3242   1.399       .  A
C3241      H3254   1.084       .  S
C3242      C3243   1.399       .  A
C3242      C3245   1.436       .  S
C3243      C3244   1.396       .  A
C3243      H3255   1.084       .  S
C3244      H3256   1.083       .  S
C3245      C3246   1.204       .  T
C3246      C3247   1.436       .  S
C3247      C3248   1.400       .  A
C3247      C3252   1.399       .  A
C3248      C3249   1.396       .  A
C3248      H3257   1.084       .  S
C3249      C3250   1.403       .  A
C3249      H3258   1.083       .  S
C3250      C3251   1.405       .  A
C3251      C3252   1.397       .  A
C3251      H3259   1.083       .  S
C3252      H3260   1.083       .  S
C3261      C3262   1.408       .  A
C3261      C3266   1.407       .  A
C3262      C3263   1.400       .  A
C3262      H3275   1.083       .  S
C3263      C3264   1.400       .  A
C3263      H3276   1.083       .  S
C3264      C3265   1.400       .  A
C3264      C3267   1.442       .  S
C3265      C3266   1.399       .  A
C3265      H3277   1.084       .  S
C3266      H3278   1.083       .  S
C3267      C3268   1.208       .  T
C3268      C3269   1.442       .  S
C3269      C3270   1.400       .  A
C3269      C3274   1.402       .  A
C3270      C3271   1.398       .  A
C3270      H3279   1.083       .  S
C3271      C3272   1.404       .  A
C3271      H3280   1.083       .  S
C3272      C3273   1.404       .  A
C3273      C3274   1.400       .  A
C3273      H3281   1.083       .  S
C3274      H3282   1.083       .  S
C3283      C3284   1.406       .  A
C3283      C3288   1.403       .  A
C3284      C3285   1.399       .  A
C3284      H3297   1.082       .  S
C3285      C3286   1.399       .  A
C3285      H3298   1.083       .  S
C3286      C3287   1.399       .  A
C3286      C3289   1.435       .  S
C3287      C3288   1.394       .  A
C3287      H3299   1.084       .  S
C3288      H3300   1.083       .  S
C3289      C3290   1.203       .  T
C3290      C3291   1.435       .  S
C3291      C3292   1.398       .  A
C3291      C3296   1.400       .  A
C3292      C3293   1.394       .  A
C3292      H3301   1.084       .  S
C3293      C3294   1.406       .  A
C3293      H3302   1.083       .  S
C3294      C3295   1.407       .  A
C3295      C3296   1.400       .  A
C3295      H3303   1.083       .  S
C3296      H3304   1.083       .  S
C3305      C3306   1.403       .  A
C3305      C3310   1.406       .  A
C3306      C3307   1.396       .  A
C3306      H3319   1.083       .  S
C3307      C3308   1.400       .  A
C3307      H3320   1.084       .  S
C3308      C3309   1.398       .  A
C3308      C3311   1.434       .  S
C3309      C3310   1.396       .  A
C3309      H3321   1.084       .  S
C3310      H3322   1.082       .  S
C3311      C3312   1.202       .  T
C3312      C3313   1.434       .  S
C3313      C3314   1.399       .  A
C3313      C3318   1.398       .  A
C3314      C3315   1.398       .  A
C3314      H3323   1.083       .  S
C3315      C3316   1.406       .  A
C3315      H3324   1.083       .  S
C3316      C3317   1.406       .  A
C3317      C3318   1.394       .  A
C3317      H3325   1.083       .  S
C3318      H3326   1.084       .  S
C3327      C3328   1.403       .  A
C3327      C3332   1.404       .  A
C3328      C3329   1.398       .  A
C3328      H3341   1.083       .  S
C3329      C3330   1.401       .  A
C3329      H3342   1.083       .  S
C3330      C3331   1.400       .  A
C3330      C3333   1.439       .  S
C3331      C3332   1.397       .  A
C3331      H3343   1.083       .  S
C3332      H3344   1.083       .  S
C3333      C3334   1.206       .  T
C3334      C3335   1.439       .  S
C3335      C3336   1.400       .  A
C3335      C3340   1.399       .  A
C3336      C3337   1.399       .  A
C3336      H3345   1.084       .  S
C3337      C3338   1.407       .  A
C3337      H3346   1.083       .  S
C3338      C3339   1.407       .  A
C3339      C3340   1.398       .  A
C3339      H3347   1.083       .  S
C3340      H3348   1.084       .  S
C3349      C3350   1.406       .  A
C3349      C3354   1.407       .  A
C3350      C3351   1.394       .  A
C3350      H3363   1.083       .  S
C3351      C3352   1.398       .  A
C3351      H3364   1.084       .  S
C3352      C3353   1.399       .  A
C3352      C3355   1.433       .  S
C3353      C3354   1.397       .  A
C3353      H3365   1.083       .  S
C3354      H3366   1.083       .  S
C3355      C3356   1.202       .  T
C3356      C3357   1.433       .  S
C3357      C3358   1.399       .  A
C3357      C3362   1.399       .  A
C3358      C3359   1.396       .  A
C3358      H3367   1.084       .  S
C3359      C3360   1.405       .  A
C3359      H3368   1.083       .  S
C3360      C3361   1.403       .  A
C3361      C3362   1.396       .  A
C3361      H3369   1.083       .  S
C3362      H3370   1.084       .  S
C3371      C3372   1.406       .  A
C3371      C3376   1.407       .  A
C3372      C3373   1.395       .  A
C3372      H3385   1.083       .  S
C3373      C3374   1.398       .  A
C3373      H3386   1.084       .  S
C3374      C3375   1.399       .  A
C3374      C3377   1.435       .  S
C3375      C3376   1.398       .  A
C3375      H3387   1.083       .  S
C3376      H3388   1.083       .  S
C3377      C3378   1.203       .  T
C3378      C3379   1.435       .  S
C3379      C3380   1.399       .  A
C3379      C3384   1.399       .  A
C3380      C3381   1.397       .  A
C3380      H3389   1.083       .  S
C3381      C3382   1.405       .  A
C3381      H3390   1.083       .  S
C3382      C3383   1.404       .  A
C3383      C3384   1.396       .  A
C3383      H3391   1.082       .  S
C3384      H3392   1.084       .  S
C3393      C3394   1.405       .  A
C3393      C3398   1.403       .  A
C3394      C3395   1.399       .  A
C3394      H3407   1.083       .  S
C3395      C3396   1.401       .  A
C3395      H3408   1.083       .  S
C3396      C3397   1.401       .  A
C3396      C3399   1.441       .  S
C3397      C3398   1.399       .  A
C3397      H3409   1.083       .  S
C3398      H3410   1.083       .  S
C3399      C3400   1.207       .  T
C3400      C3401   1.442       .  S
C3401      C3402   1.400       .  A
C3401      C3406   1.400       .  A
C3402      C3403   1.399       .  A
C3402      H3411   1.084       .  S
C3403      C3404   1.407       .  A
C3403      H3412   1.083       .  S
C3404      C3405   1.408       .  A
C3405      C3406   1.399       .  A
C3405      H3413   1.083       .  S
C3406      H3414   1.083       .  S
C3415      C3416   1.405       .  A
C3415      C3420   1.405       .  A
C3416      C3417   1.395       .  A
C3416      H3429   1.083       .  S
C3417      C3418   1.398       .  A
C3417      H3430   1.084       .  S
C3418      C3419   1.399       .  A
C3418      C3421   1.434       .  S
C3419      C3420   1.397       .  A
C3419      H3431   1.083       .  S
C3420      H3432   1.082       .  S
C3421      C3422   1.203       .  T
C3422      C3423   1.434       .  S
C3423      C3424   1.398       .  A
C3423      C3428   1.399       .  A
C3424      C3425   1.396       .  A
C3424      H3433   1.084       .  S
C3425      C3426   1.407       .  A
C3425      H3434   1.083       .  S
C3426      C3427   1.406       .  A
C3427      C3428   1.397       .  A
C3427      H3435   1.083       .  S
C3428      H3436   1.084       .  S
C3437      C3438   1.402       .  A
C3437      C3442   1.404       .  A
C3438      C3439   1.395       .  A
C3438      H3451   1.083       .  S
C3439      C3440   1.399       .  A
C3439      H3452   1.083       .  S
C3440      C3441   1.399       .  A
C3440      C3443   1.432       .  S
C3441      C3442   1.396       .  A
C3441      H3453   1.084       .  S
C3442      H3454   1.083       .  S
C3443      C3444   1.202       .  T
C3444      C3445   1.432       .  S
C3445      C3446   1.398       .  A
C3445      C3450   1.398       .  A
C3446      C3447   1.395       .  A
C3446      H3455   1.084       .  S
C3447      C3448   1.406       .  A
C3447      H3456   1.083       .  S
C3448      C3449   1.406       .  A
C3449      C3450   1.397       .  A
C3449      H3457   1.083       .  S
C3450      H3458   1.084       .  S
C3459      C3460   1.404       .  A
C3459      C3464   1.404       .  A
C3460      C3461   1.400       .  A
C3460      H3473   1.083       .  S
C3461      C3462   1.402       .  A
C3461      H3474   1.083       .  S
C3462      C3463   1.400       .  A
C3462      C3465   1.441       .  S
C3463      C3464   1.397       .  A
C3463      H3475   1.084       .  S
C3464      H3476   1.083       .  S
C3465      C3466   1.207       .  T
C3466      C3467   1.441       .  S
C3467      C3468   1.400       .  A
C3467      C3472   1.400       .  A
C3468      C3469   1.399       .  A
C3468      H3477   1.084       .  S
C3469      C3470   1.407       .  A
C3469      H3478   1.083       .  S
C3470      C3471   1.407       .  A
C3471      C3472   1.400       .  A
C3471      H3479   1.083       .  S
C3472      H3480   1.083       .  S
C3481      C3482   1.403       .  A
C3481      C3486   1.405       .  A
C3482      C3483   1.394       .  A
C3482      H3495   1.083       .  S
C3483      C3484   1.398       .  A
C3483      H3496   1.084       .  S
C3484      C3485   1.399       .  A
C3484      C3487   1.431       .  S
C3485      C3486   1.396       .  A
C3485      H3497   1.084       .  S
C3486      H3498   1.082       .  S
C3487      C3488   1.201       .  T
C3488      C3489   1.432       .  S
C3489      C3490   1.397       .  A
C3489      C3494   1.399       .  A
C3490      C3491   1.394       .  A
C3490      H3499   1.084       .  S
C3491      C3492   1.406       .  A
C3491      H3500   1.083       .  S
C3492      C3493   1.406       .  A
C3493      C3494   1.397       .  A
C3493      H3501   1.083       .  S
C3494      H3502   1.084       .  S
C3503      C3504   1.405       .  A
C3503      C3508   1.406       .  A
C3504      C3505   1.394       .  A
C3504      H3517   1.083       .  S
C3505      C3506   1.398       .  A
C3505      H3518   1.084       .  S
C3506      C3507   1.398       .  A
C3506      C3509   1.430       .  S
C3507      C3508   1.395       .  A
C3507      H3519   1.084       .  S
C3508      H3520   1.083       .  S
C3509      C3510   1.200       .  T
C3510      C3511   1.429       .  S
C3511      C3512   1.399       .  A
C3511      C3516   1.398       .  A
C3512      C3513   1.394       .  A
C3512      H3521   1.084       .  S
C3513      C3514   1.402       .  A
C3513      H3522   1.083       .  S
C3514      C3515   1.404       .  A
C3515      C3516   1.395       .  A
C3515      H3523   1.083       .  S
C3516      H3524   1.084       .  S
C3525      C3526   1.404       .  A
C3525      C3530   1.405       .  A
C3526      C3527   1.400       .  A
C3526      H3539   1.083       .  S
C3527      C3528   1.402       .  A
C3527      H3540   1.083       .  S
C3528      C3529   1.400       .  A
C3528      C3531   1.442       .  S
C3529      C3530   1.398       .  A
C3529      H3541   1.083       .  S
C3530      H3542   1.083       .  S
C3531      C3532   1.207       .  T
C3532      C3533   1.442       .  S
C3533      C3534   1.400       .  A
C3533      C3538   1.400       .  A
C3534      C3535   1.400       .  A
C3534      H3543   1.083       .  S
C3535      C3536   1.407       .  A
C3535      H3544   1.083       .  S
C3536      C3537   1.407       .  A
C3537      C3538   1.399       .  A
C3537      H3545   1.083       .  S
C3538      H3546   1.084       .  S
C3547      C3548   1.406       .  A
C3547      C3552   1.404       .  A
C3548      C3549   1.397       .  A
C3548      H3561   1.082       .  S
C3549      C3550   1.399       .  A
C3549      H3562   1.084       .  S
C3550      C3551   1.399       .  A
C3550      C3553   1.436       .  S
C3551      C3552   1.397       .  A
C3551      H3563   1.084       .  S
C3552      H3564   1.083       .  S
C3553      C3554   1.204       .  T
C3554      C3555   1.436       .  S
C3555      C3556   1.399       .  A
C3555      C3560   1.399       .  A
C3556      C3557   1.398       .  A
C3556      H3565   1.084       .  S
C3557      C3558   1.406       .  A
C3557      H3566   1.083       .  S
C3558      C3559   1.406       .  A
C3559      C3560   1.396       .  A
C3559      H3567   1.083       .  S
C3560      H3568   1.084       .  S
C3569      C3570   1.405       .  A
C3569      C3574   1.404       .  A
C3570      C3571   1.397       .  A
C3570      H3583   1.082       .  S
C3571      C3572   1.399       .  A
C3571      H3584   1.084       .  S
C3572      C3573   1.399       .  A
C3572      C3575   1.436       .  S
C3573      C3574   1.397       .  A
C3573      H3585   1.083       .  S
C3574      H3586   1.083       .  S
C3575      C3576   1.204       .  T
C3576      C3577   1.436       .  S
C3577      C3578   1.400       .  A
C3577      C3582   1.398       .  A
C3578      C3579   1.399       .  A
C3578      H3587   1.083       .  S
C3579      C3580   1.407       .  A
C3579      H3588   1.083       .  S
C3580      C3581   1.406       .  A
C3581      C3582   1.395       .  A
C3581      H3589   1.083       .  S
C3582      H3590   1.084       .  S
C3591      C3592   1.404       .  A
C3591      C3596   1.403       .  A
C3592      C3593   1.398       .  A
C3592      H3605   1.083       .  S
C3593      C3594   1.400       .  A
C3593      H3606   1.083       .  S
C3594      C3595   1.400       .  A
C3594      C3597   1.438       .  S
C3595      C3596   1.397       .  A
C3595      H3607   1.083       .  S
C3596      H3608   1.083       .  S
C3597      C3598   1.205       .  T
C3598      C3599   1.438       .  S
C3599      C3600   1.399       .  A
C3599      C3604   1.400       .  A
C3600      C3601   1.397       .  A
C3600      H3609   1.084       .  S
C3601      C3602   1.407       .  A
C3601      H3610   1.083       .  S
C3602      C3603   1.407       .  A
C3603      C3604   1.399       .  A
C3603      H3611   1.083       .  S
C3604      H3612   1.083       .  S
C3613      C3614   1.406       .  A
C3613      C3618   1.405       .  A
C3614      C3615   1.397       .  A
C3614      H3627   1.081       .  S
C3615      C3616   1.398       .  A
C3615      H3628   1.086       .  S
C3616      C3617   1.400       .  A
C3616      C3619   1.436       .  S
C3617      C3618   1.397       .  A
C3617      H3629   1.082       .  S
C3618      H3630   1.084       .  S
C3619      C3620   1.204       .  T
C3620      C3621   1.436       .  S
C3621      C3622   1.398       .  A
C3621      C3626   1.400       .  A
C3622      C3623   1.396       .  A
C3622      H3631   1.084       .  S
C3623      C3624   1.407       .  A
C3623      H3632   1.083       .  S
C3624      C3625   1.406       .  A
C3625      C3626   1.398       .  A
C3625      H3633   1.083       .  S
C3626      H3634   1.083       .  S
C3635      C3636   1.405       .  A
C3635      C3640   1.406       .  A
C3636      C3637   1.396       .  A
C3636      H3649   1.083       .  S
C3637      C3638   1.399       .  A
C3637      H3650   1.084       .  S
C3638      C3639   1.400       .  A
C3638      C3641   1.437       .  S
C3639      C3640   1.398       .  A
C3639      H3651   1.083       .  S
C3640      H3652   1.082       .  S
C3641      C3642   1.204       .  T
C3642      C3643   1.437       .  S
C3643      C3644   1.400       .  A
C3643      C3648   1.399       .  A
C3644      C3645   1.398       .  A
C3644      H3653   1.083       .  S
C3645      C3646   1.406       .  A
C3645      H3654   1.083       .  S
C3646      C3647   1.407       .  A
C3647      C3648   1.396       .  A
C3647      H3655   1.083       .  S
C3648      H3656   1.084       .  S
C3657      C3658   1.405       .  A
C3657      C3662   1.403       .  A
C3658      C3659   1.399       .  A
C3658      H3671   1.084       .  S
C3659      C3660   1.401       .  A
C3659      H3672   1.082       .  S
C3660      C3661   1.400       .  A
C3660      C3663   1.439       .  S
C3661      C3662   1.397       .  A
C3661      H3673   1.084       .  S
C3662      H3674   1.082       .  S
C3663      C3664   1.206       .  T
C3664      C3665   1.440       .  S
C3665      C3666   1.400       .  A
C3665      C3670   1.400       .  A
C3666      C3667   1.398       .  A
C3666      H3675   1.084       .  S
C3667      C3668   1.407       .  A
C3667      H3676   1.083       .  S
C3668      C3669   1.407       .  A
C3669      C3670   1.399       .  A
C3669      H3677   1.083       .  S
C3670      H3678   1.083       .  S
C3679      C3680   1.405       .  A
C3679      C3684   1.407       .  A
C3680      C3681   1.395       .  A
C3680      H3693   1.083       .  S
C3681      C3682   1.398       .  A
C3681      H3694   1.084       .  S
C3682      C3683   1.398       .  A
C3682      C3685   1.430       .  S
C3683      C3684   1.395       .  A
C3683      H3695   1.084       .  S
C3684      H3696   1.083       .  S
C3685      C3686   1.200       .  T
C3686      C3687   1.430       .  S
C3687      C3688   1.398       .  A
C3687      C3692   1.399       .  A
C3688      C3689   1.394       .  A
C3688      H3697   1.084       .  S
C3689      C3690   1.404       .  A
C3689      H3698   1.083       .  S
C3690      C3691   1.404       .  A
C3691      C3692   1.395       .  A
C3691      H3699   1.082       .  S
C3692      H3700   1.084       .  S
C3701      C3702   1.406       .  A
C3701      C3706   1.406       .  A
C3702      C3703   1.395       .  A
C3702      H3715   1.083       .  S
C3703      C3704   1.398       .  A
C3703      H3716   1.084       .  S
C3704      C3705   1.399       .  A
C3704      C3707   1.431       .  S
C3705      C3706   1.396       .  A
C3705      H3717   1.084       .  S
C3706      H3718   1.083       .  S
C3707      C3708   1.201       .  T
C3708      C3709   1.431       .  S
C3709      C3710   1.398       .  A
C3709      C3714   1.399       .  A
C3710      C3711   1.394       .  A
C3710      H3719   1.084       .  S
C3711      C3712   1.403       .  A
C3711      H3720   1.083       .  S
C3712      C3713   1.404       .  A
C3713      C3714   1.396       .  A
C3713      H3721   1.083       .  S
C3714      H3722   1.084       .  S
C3723      C3724   1.404       .  A
C3723      C3728   1.405       .  A
C3724      C3725   1.398       .  A
C3724      H3737   1.083       .  S
C3725      C3726   1.401       .  A
C3725      H3738   1.083       .  S
C3726      C3727   1.402       .  A
C3726      C3729   1.444       .  S
C3727      C3728   1.402       .  A
C3727      H3739   1.083       .  S
C3728      H3740   1.083       .  S
C3729      C3730   1.209       .  T
C3730      C3731   1.445       .  S
C3731      C3732   1.400       .  A
C3731      C3736   1.401       .  A
C3732      C3733   1.400       .  A
C3732      H3741   1.084       .  S
C3733      C3734   1.408       .  A
C3733      H3742   1.083       .  S
C3734      C3735   1.408       .  A
C3735      C3736   1.401       .  A
C3735      H3743   1.083       .  S
C3736      H3744   1.083       .  S
C3745      C3746   1.405       .  A
C3745      C3750   1.404       .  A
C3746      C3747   1.398       .  A
C3746      H3759   1.082       .  S
C3747      C3748   1.400       .  A
C3747      H3760   1.084       .  S
C3748      C3749   1.399       .  A
C3748      C3751   1.436       .  S
C3749      C3750   1.396       .  A
C3749      H3761   1.084       .  S
C3750      H3762   1.083       .  S
C3751      C3752   1.203       .  T
C3752      C3753   1.436       .  S
C3753      C3754   1.399       .  A
C3753      C3758   1.398       .  A
C3754      C3755   1.397       .  A
C3754      H3763   1.084       .  S
C3755      C3756   1.406       .  A
C3755      H3764   1.083       .  S
C3756      C3757   1.407       .  A
C3757      C3758   1.397       .  A
C3757      H3765   1.083       .  S
C3758      H3766   1.084       .  S
C3767      C3768   1.407       .  A
C3767      C3772   1.406       .  A
C3768      C3769   1.394       .  A
C3768      H3781   1.083       .  S
C3769      C3770   1.397       .  A
C3769      H3782   1.084       .  S
C3770      C3771   1.400       .  A
C3770      C3773   1.435       .  S
C3771      C3772   1.399       .  A
C3771      H3783   1.084       .  S
C3772      H3784   1.083       .  S
C3773      C3774   1.203       .  T
C3774      C3775   1.434       .  S
C3775      C3776   1.398       .  A
C3775      C3780   1.400       .  A
C3776      C3777   1.395       .  A
C3776      H3785   1.084       .  S
C3777      C3778   1.405       .  A
C3777      H3786   1.082       .  S
C3778      C3779   1.403       .  A
C3779      C3780   1.398       .  A
C3779      H3787   1.083       .  S
C3780      H3788   1.083       .  S
C3789      C3790   1.407       .  A
C3789      C3794   1.408       .  A
C3790      C3791   1.401       .  A
C3790      H3803   1.083       .  S
C3791      C3792   1.401       .  A
C3791      H3804   1.083       .  S
C3792      C3793   1.398       .  A
C3792      C3795   1.441       .  S
C3793      C3794   1.397       .  A
C3793      H3805   1.084       .  S
C3794      H3806   1.083       .  S
C3795      C3796   1.206       .  T
C3796      C3797   1.440       .  S
C3797      C3798   1.400       .  A
C3797      C3802   1.401       .  A
C3798      C3799   1.398       .  A
C3798      H3807   1.083       .  S
C3799      C3800   1.404       .  A
C3799      H3808   1.083       .  S
C3800      C3801   1.404       .  A
C3801      C3802   1.399       .  A
C3801      H3809   1.083       .  S
C3802      H3810   1.083       .  S
C3811      C3812   1.406       .  A
C3811      C3816   1.407       .  A
C3812      C3813   1.397       .  A
C3812      H3825   1.083       .  S
C3813      C3814   1.399       .  A
C3813      H3826   1.084       .  S
C3814      C3815   1.399       .  A
C3814      C3817   1.437       .  S
C3815      C3816   1.398       .  A
C3815      H3827   1.084       .  S
C3816      H3828   1.083       .  S
C3817      C3818   1.204       .  T
C3818      C3819   1.437       .  S
C3819      C3820   1.400       .  A
C3819      C3824   1.398       .  A
C3820      C3821   1.399       .  A
C3820      H3829   1.084       .  S
C3821      C3822   1.406       .  A
C3821      H3830   1.082       .  S
C3822      C3823   1.404       .  A
C3823      C3824   1.395       .  A
C3823      H3831   1.083       .  S
C3824      H3832   1.084       .  S
C3833      C3834   1.407       .  A
C3833      C3838   1.406       .  A
C3834      C3835   1.397       .  A
C3834      H3847   1.083       .  S
C3835      C3836   1.399       .  A
C3835      H3848   1.084       .  S
C3836      C3837   1.399       .  A
C3836      C3839   1.436       .  S
C3837      C3838   1.396       .  A
C3837      H3849   1.084       .  S
C3838      H3850   1.083       .  S
C3839      C3840   1.203       .  T
C3840      C3841   1.435       .  S
C3841      C3842   1.399       .  A
C3841      C3846   1.399       .  A
C3842      C3843   1.396       .  A
C3842      H3851   1.084       .  S
C3843      C3844   1.404       .  A
C3843      H3852   1.083       .  S
C3844      C3845   1.405       .  A
C3845      C3846   1.397       .  A
C3845      H3853   1.083       .  S
C3846      H3854   1.084       .  S
C3855      C3856   1.404       .  A
C3855      C3860   1.404       .  A
C3856      C3857   1.400       .  A
C3856      H3869   1.083       .  S
C3857      C3858   1.402       .  A
C3857      H3870   1.083       .  S
C3858      C3859   1.400       .  A
C3858      C3861   1.441       .  S
C3859      C3860   1.397       .  A
C3859      H3871   1.083       .  S
C3860      H3872   1.083       .  S
C3861      C3862   1.207       .  T
C3862      C3863   1.441       .  S
C3863      C3864   1.400       .  A
C3863      C3868   1.400       .  A
C3864      C3865   1.399       .  A
C3864      H3873   1.084       .  S
C3865      C3866   1.407       .  A
C3865      H3874   1.083       .  S
C3866      C3867   1.408       .  A
C3867      C3868   1.400       .  A
C3867      H3875   1.083       .  S
C3868      H3876   1.083       .  S
C3877      C3878   1.405       .  A
C3877      C3882   1.404       .  A
C3878      C3879   1.398       .  A
C3878      H3891   1.082       .  S
C3879      C3880   1.400       .  A
C3879      H3892   1.084       .  S
C3880      C3881   1.399       .  A
C3880      C3883   1.437       .  S
C3881      C3882   1.396       .  A
C3881      H3893   1.083       .  S
C3882      H3894   1.083       .  S
C3883      C3884   1.205       .  T
C3884      C3885   1.438       .  S
C3885      C3886   1.400       .  A
C3885      C3890   1.399       .  A
C3886      C3887   1.399       .  A
C3886      H3895   1.083       .  S
C3887      C3888   1.407       .  A
C3887      H3896   1.083       .  S
C3888      C3889   1.407       .  A
C3889      C3890   1.396       .  A
C3889      H3897   1.083       .  S
C3890      H3898   1.084       .  S
C3899      C3900   1.405       .  A
C3899      C3904   1.404       .  A
C3900      C3901   1.396       .  A
C3900      H3913   1.082       .  S
C3901      C3902   1.399       .  A
C3901      H3914   1.084       .  S
C3902      C3903   1.400       .  A
C3902      C3905   1.435       .  S
C3903      C3904   1.397       .  A
C3903      H3915   1.084       .  S
C3904      H3916   1.083       .  S
C3905      C3906   1.203       .  T
C3906      C3907   1.435       .  S
C3907      C3908   1.398       .  A
C3907      C3912   1.399       .  A
C3908      C3909   1.397       .  A
C3908      H3917   1.083       .  S
C3909      C3910   1.408       .  A
C3909      H3918   1.083       .  S
C3910      C3911   1.405       .  A
C3911      C3912   1.396       .  A
C3911      H3919   1.083       .  S
C3912      H3920   1.084       .  S
C3921      C3922   1.407       .  A
C3921      C3926   1.407       .  A
C3922      C3923   1.400       .  A
C3922      H3935   1.083       .  S
C3923      C3924   1.400       .  A
C3923      H3936   1.084       .  S
C3924      C3925   1.399       .  A
C3924      C3927   1.440       .  S
C3925      C3926   1.398       .  A
C3925      H3937   1.084       .  S
C3926      H3938   1.083       .  S
C3927      C3928   1.206       .  T
C3928      C3929   1.440       .  S
C3929      C3930   1.401       .  A
C3929      C3934   1.400       .  A
C3930      C3931   1.398       .  A
C3930      H3939   1.083       .  S
C3931      C3932   1.404       .  A
C3931      H3940   1.083       .  S
C3932      C3933   1.404       .  A
C3933      C3934   1.398       .  A
C3933      H3941   1.083       .  S
C3934      H3942   1.083       .  S
C3943      C3944   1.404       .  A
C3943      C3948   1.405       .  A
C3944      C3945   1.393       .  A
C3944      H3957   1.083       .  S
C3945      C3946   1.398       .  A
C3945      H3958   1.084       .  S
C3946      C3947   1.401       .  A
C3946      C3949   1.434       .  S
C3947      C3948   1.399       .  A
C3947      H3959   1.083       .  S
C3948      H3960   1.083       .  S
C3949      C3950   1.202       .  T
C3950      C3951   1.434       .  S
C3951      C3952   1.398       .  A
C3951      C3956   1.399       .  A
C3952      C3953   1.396       .  A
C3952      H3961   1.084       .  S
C3953      C3954   1.406       .  A
C3953      H3962   1.083       .  S
C3954      C3955   1.406       .  A
C3955      C3956   1.396       .  A
C3955      H3963   1.083       .  S
C3956      H3964   1.084       .  S
C3965      C3966   1.405       .  A
C3965      C3970   1.404       .  A
C3966      C3967   1.397       .  A
C3966      H3979   1.082       .  S
C3967      C3968   1.400       .  A
C3967      H3980   1.084       .  S
C3968      C3969   1.398       .  A
C3968      C3971   1.434       .  S
C3969      C3970   1.395       .  A
C3969      H3981   1.084       .  S
C3970      H3982   1.083       .  S
C3971      C3972   1.203       .  T
C3972      C3973   1.434       .  S
C3973      C3974   1.399       .  A
C3973      C3978   1.398       .  A
C3974      C3975   1.398       .  A
C3974      H3983   1.083       .  S
C3975      C3976   1.407       .  A
C3975      H3984   1.083       .  S
C3976      C3977   1.406       .  A
C3977      C3978   1.395       .  A
C3977      H3985   1.083       .  S
C3978      H3986   1.084       .  S
C3987      C3988   1.406       .  A
C3987      C3992   1.403       .  A
C3988      C3989   1.400       .  A
C3988      H4001   1.083       .  S
C3989      C3990   1.400       .  A
C3989      H4002   1.083       .  S
C3990      C3991   1.401       .  A
C3990      C3993   1.441       .  S
C3991      C3992   1.398       .  A
C3991      H4003   1.084       .  S
C3992      H4004   1.082       .  S
C3993      C3994   1.207       .  T
C3994      C3995   1.441       .  S
C3995      C3996   1.398       .  A
C3995      C4000   1.402       .  A
C3996      C3997   1.395       .  A
C3996      H4005   1.084       .  S
C3997      C3998   1.406       .  A
C3997      H4006   1.083       .  S
C3998      C3999   1.407       .  A
C3999      C4000   1.403       .  A
C3999      H4007   1.083       .  S
C4000      H4008   1.083       .  S
