geometry optimzed in LAMMPS
_audit_creation_date              2020-11-30 
_audit_creation_method            'lammps2cif' 
_symmetry_space_group_name_H-M    'P1' 
_symmetry_Int_Tables_number       1 
_symmetry_cell_setting            triclinic 
loop_ 
_symmetry_equiv_pos_as_xyz 
  x,y,z 
_cell_length_a                    37.503556759517835 
_cell_length_b                    38.113273877769224 
_cell_length_c                    42.25039705121054 
_cell_angle_alpha                 89.59442270484912 
_cell_angle_beta                  90.0707925421961 
_cell_angle_gamma                 118.86152025280737 
loop_ 
_atom_site_label 
_atom_site_type_symbol 
_atom_site_fract_x 
_atom_site_fract_y 
_atom_site_fract_z 
_atom_site_charge 
O1          O  0.93425123  0.22189927  0.68642119    -0.81320
O2          O  0.74726936  0.16339389  0.70166812    -0.66010
O3          O  0.85176544  0.17047642  0.70052218    -1.12610
C4          C  0.82529249  0.15755746  0.58892768     1.05570
O5          O  0.72458365  0.11083223  0.67022775    -0.79210
O6          O  0.76904189  0.08786575  0.63434577    -0.66800
Ni7        Ni  0.89721188  0.21105601  0.72209590     1.34870
C8          C  0.79565840  0.08111484  0.64741904     0.84310
O9          O  0.79850585  0.16766607  0.74716604    -0.79750
O10         O  0.86455631  0.20338165  0.76015362    -0.90030
C11         C  0.71820722  0.13120754  0.69084879     0.83880
O12         O  0.89023158  0.25563753  0.70981036    -0.68230
O13         O  0.78948802  0.15128343  0.59523354    -0.87520
C14         C  0.85798160  0.25847063  0.70758747     0.84710
C15         C  0.82652488  0.18586793  0.76731610     1.06280
H16         H  0.81048761  0.19662187  0.64978707     0.38080
O17         O  0.80438087  0.17029182  0.65728889    -1.10180
O18         O  0.82765164  0.10916571  0.65975730    -0.66830
Ni19       Ni  0.85307900  0.16709043  0.65552613     1.26350
O20         O  0.82252168  0.22790429  0.70432738    -0.67060
O21         O  0.85171217  0.16250044  0.61006627    -0.79350
C22         C  0.93629318  0.19882045  0.66549764     0.84090
O23         O  0.90443735  0.16821666  0.65581705    -0.66530
Ni24       Ni  0.75882177  0.13251926  0.63358940     1.27450
Ni25       Ni  0.80078831  0.16948859  0.70224100     1.26060
H26         H  0.84778443  0.14549738  0.70959614     0.38640
C27         C  0.81008188  0.26125894  0.93899901     0.02700
C28         C  0.81658442  0.25137083  0.90835238    -0.13450
C29         C  0.78846474  0.21534315  0.89429399     0.00200
C30         C  0.75291856  0.18926921  0.91074384    -0.11970
C31         C  0.74585609  0.19755664  0.94184588     0.02700
C32         C  0.77481579  0.23393568  0.95595752    -0.11390
H33         H  0.84375543  0.27184026  0.89537154     0.08290
H34         H  0.73108491  0.16165590  0.89955503     0.05820
H35         H  0.77024888  0.24074509  0.97996014     0.05670
C36         C  0.83504628  0.10231063  0.41050244     0.02700
C37         C  0.82733173  0.10987640  0.44137274    -0.13450
C38         C  0.85606343  0.14410695  0.45721346     0.00200
C39         C  0.89262568  0.17051550  0.44213955    -0.11970
C40         C  0.90003772  0.16382802  0.41079288     0.02700
C41         C  0.87055075  0.13008401  0.39484635    -0.11390
H42         H  0.80013604  0.08813007  0.45364989     0.08290
H43         H  0.91574293  0.19565705  0.45512483     0.05820
H44         H  0.87619850  0.12423549  0.37081226     0.05670
O45         O  0.05436270  0.45612365  0.99108501    -0.81320
O46         O  0.92382540  0.50978265  0.97891414    -0.66010
O47         O  0.02485846  0.51010539  0.97789656    -1.12610
C48         C  0.01796095  0.52361397  0.08951592     1.05570
O49         O  0.94750314  0.56200181  0.01107780    -0.79210
O50         O  0.02154157  0.59314874  0.03919267    -0.66800
Ni51       Ni  0.03154903  0.47065045  0.95503806     1.34870
C52         C  0.05644173  0.59959888  0.03025595     0.84310
O53         O  0.97069207  0.50818124  0.93193629    -0.79750
O54         O  0.01003412  0.48206846  0.91696704    -0.90030
C55         C  0.92277660  0.54010372  0.98988872     0.83880
O56         O  0.97938044  0.42442466  0.96199403    -0.68230
O57         O  0.99184598  0.53520860  0.08380224    -0.87520
C58         C  0.94457456  0.41992389  0.96938081     0.84710
C59         C  0.98588656  0.49598460  0.91045722     1.06280
H60         H  0.95928895  0.48273489  0.03062065     0.38080
O61         O  0.97850398  0.50884958  0.02241596    -1.10180
O62         O  0.06270689  0.57075089  0.02186545    -0.66830
Ni63       Ni  0.03055496  0.51196929  0.02285800     1.26350
O64         O  0.93981817  0.44962764  0.97767964    -0.67060
O65         O  0.03430281  0.51270061  0.06805514    -0.79350
C66         C  0.07947881  0.47830608  0.01219167     0.84090
O67         O  0.08042868  0.51044444  0.02113656    -0.66530
Ni68       Ni  0.97022585  0.54672201  0.04624212     1.27450
Ni69       Ni  0.97342255  0.50801211  0.97734261     1.26060
H70         H  0.04444634  0.53580573  0.96924933     0.38640
C71         C  0.89307787  0.42070562  0.73785860     0.02700
C72         C  0.91464522  0.43255223  0.76674362    -0.13450
C73         C  0.92372071  0.46903897  0.78097475     0.00200
C74         C  0.91392342  0.49541492  0.76489446    -0.11970
C75         C  0.89447726  0.48564650  0.73531487     0.02700
C76         C  0.88360092  0.44789928  0.72201434    -0.11390
H77         H  0.92247300  0.41222312  0.77915167     0.08290
H78         H  0.92115433  0.52379713  0.77571301     0.05820
H79         H  0.86716201  0.43951241  0.69985728     0.05670
C80         C  0.08839517  0.51386726  0.26659089     0.02700
C81         C  0.09493322  0.54837143  0.28306570    -0.13450
C82         C  0.09091855  0.57900505  0.26745996     0.00200
C83         C  0.07934427  0.57415561  0.23546269    -0.11970
C84         C  0.07086610  0.53892261  0.21950964     0.02700
C85         C  0.07587073  0.50908869  0.23496543    -0.11390
H86         H  0.10395268  0.55168460  0.30770806     0.08290
H87         H  0.07659381  0.59768891  0.22299208     0.05820
H88         H  0.07057075  0.48239483  0.22224583     0.05670
O89         O  0.44088429  0.05944377  0.01895896    -0.81320
O90         O  0.50248373  0.93621915  0.03520569    -0.66010
O91         O  0.49744163  0.03289583  0.03213496    -1.12610
C92         C  0.51203883  0.02142288  0.92128840     1.05570
O93         O  0.55549896  0.95892647  0.00287978    -0.79210
O94         O  0.58422420  0.03130585  0.97382147    -0.66800
Ni95       Ni  0.45533412  0.03702760  0.05463047     1.34870
C96         C  0.58897686  0.06554291  0.98096076     0.84310
O97         O  0.49934760  0.98308260  0.07976704    -0.79750
O98         O  0.46592561  0.01592175  0.09311813    -0.90030
C99         C  0.53358770  0.93532305  0.02480798     0.83880
O100        O  0.41018298  0.98541954  0.04532588    -0.68230
O101        O  0.52648987  0.99817894  0.92828895    -0.87520
C102        C  0.40813432  0.95183883  0.03948770     0.84710
C103        C  0.48342000  0.99540007  0.10041580     1.06280
H104        H  0.47296850  0.96607568  0.98184186     0.38080
O105        O  0.49902076  0.98642529  0.98954205    -1.10180
O106        O  0.55831645  0.07065162  0.98726456    -0.66830
Ni107      Ni  0.49877686  0.03611815  0.98693050     1.26350
O108        O  0.43986831  0.94836338  0.03460121    -0.67060
O109        O  0.49945266  0.03743231  0.94169215    -0.79350
C110        C  0.46143367  0.08302716  0.99658975     0.84090
O111        O  0.49342196  0.08335778  0.98624246    -0.66530
Ni112      Ni  0.53913481  0.97945038  0.96684676     1.27450
Ni113      Ni  0.49859838  0.98377224  0.03458019     1.26060
H114        H  0.52303686  0.05362761  0.04022376     0.38640
C115        C  0.55975278  0.08615922  0.74341625     0.02700
C116        C  0.54820478  0.06559862  0.77245703    -0.13450
C117        C  0.51650306  0.06496924  0.79008769     0.00200
C118        C  0.49251642  0.08007792  0.77689462    -0.11970
C119        C  0.49979514  0.09533538  0.74583766     0.02700
C120        C  0.53461238  0.10007068  0.72975026    -0.11390
H121        H  0.56616722  0.05310512  0.78273124     0.08290
H122        H  0.46748995  0.07897804  0.79049043     0.05820
H123        H  0.54206097  0.11458917  0.70679011     0.05670
C124        C  0.41186574  0.89625220  0.27257906     0.02700
C125        C  0.41987863  0.91839474  0.24432799    -0.13450
C126        C  0.45671676  0.93113334  0.22831966     0.00200
C127        C  0.48629851  0.92274944  0.24136516    -0.11970
C128        C  0.47831480  0.89901751  0.26893471     0.02700
C129        C  0.44054039  0.88561220  0.28437176    -0.11390
H130        H  0.39688998  0.92467763  0.23433703     0.08290
H131        H  0.51504396  0.93321459  0.22905990     0.05820
H132        H  0.43319641  0.86665150  0.30520846     0.05670
O133        O  0.21811665  0.94463536  0.32533196    -0.81320
O134        O  0.15803801  0.76166333  0.30882974    -0.66010
O135        O  0.16435773  0.86406423  0.31046318    -1.12610
C136        C  0.14954153  0.83856460  0.42195066     1.05570
O137        O  0.10609858  0.73558881  0.34234677    -0.79210
O138        O  0.07936289  0.77971103  0.37384989    -0.66800
Ni139      Ni  0.20812724  0.90890090  0.28999054     1.34870
C140        C  0.07259452  0.80668011  0.36220645     0.84310
O141        O  0.16379924  0.81294372  0.26325259    -0.79750
O142        O  0.20192628  0.87857525  0.25196284    -0.90030
C143        C  0.12774909  0.73167356  0.32102097     0.83880
O144        O  0.25155365  0.89940178  0.30358390    -0.68230
O145        O  0.14098618  0.80260410  0.41599546    -0.87520
C146        C  0.25272705  0.86680632  0.30720194     0.84710
C147        C  0.18384442  0.84176565  0.24392995     1.06280
H148        H  0.18923168  0.82227887  0.36137252     0.38080
O149        O  0.16263289  0.81638940  0.35376049    -1.10180
O150        O  0.10146734  0.84024665  0.35239659    -0.66830
Ni151      Ni  0.16063905  0.86518409  0.35548066     1.26350
O152        O  0.22069092  0.83305454  0.30922452    -0.67060
O153        O  0.15690744  0.86519128  0.40075731    -0.79350
C154        C  0.19469387  0.94746686  0.34577610     0.84090
O155        O  0.16301307  0.91628169  0.35517251    -0.66530
Ni156      Ni  0.12521278  0.77137598  0.37802263     1.27450
Ni157      Ni  0.16273457  0.81351027  0.30865163     1.26060
H158        H  0.13947411  0.86110397  0.30124681     0.38640
C159        C  0.24598248  0.82291355  0.06636591     0.02700
C160        C  0.21944595  0.78614990  0.05200709    -0.13450
C161        C  0.18464280  0.75735554  0.06841093     0.00200
C162        C  0.17813929  0.76507778  0.09992150    -0.11970
C163        C  0.20343487  0.80236858  0.11412628     0.02700
C164        C  0.23619569  0.83150306  0.09634097    -0.11390
H165        H  0.22607615  0.77982837  0.02844326     0.08290
H166        H  0.15306120  0.74192637  0.11323640     0.05820
H167        H  0.25583252  0.86053358  0.10661849     0.05670
C168        C  0.08967564  0.83921281  0.59941203     0.02700
C169        C  0.09895351  0.83523146  0.56809826    -0.13450
C170        C  0.13288300  0.86642157  0.55325880     0.00200
C171        C  0.15692876  0.90202030  0.56961240    -0.11970
C172        C  0.14878419  0.90578411  0.60154253     0.02700
C173        C  0.11579914  0.87350469  0.61656360    -0.11390
H174        H  0.07849784  0.80897933  0.55470754     0.08290
H175        H  0.18156508  0.92697359  0.55729923     0.05820
H176        H  0.10882061  0.87595735  0.64105687     0.05670
O177        O  0.71768619  0.61248096  0.65280745    -0.81320
O178        O  0.90283190  0.74158974  0.64580867    -0.66010
O179        O  0.80218996  0.64511190  0.64450136    -1.12610
C180        C  0.81942135  0.65532026  0.75711121     1.05570
O181        O  0.92931405  0.71695901  0.68050007    -0.79210
O182        O  0.88498492  0.64714464  0.71264640    -0.66800
Ni183      Ni  0.75778364  0.64299695  0.62100480     1.34870
C184        C  0.85925646  0.61380529  0.70114131     0.84310
O185        O  0.85737527  0.69517349  0.59932839    -0.79750
O186        O  0.79238261  0.67270808  0.58549029    -0.90030
C187        C  0.93324681  0.74014038  0.65733920     0.83880
O188        O  0.76118337  0.68986726  0.63923347    -0.68230
O189        O  0.85593552  0.68284104  0.75212239    -0.87520
C190        C  0.79114307  0.72477319  0.63953470     0.84710
C191        C  0.83030228  0.68921613  0.57878751     1.06280
H192        H  0.83736825  0.71098422  0.69545614     0.38080
O193        O  0.84521684  0.69140275  0.68899000    -1.10180
O194        O  0.82574753  0.60882264  0.68933971    -0.66830
Ni195      Ni  0.79754790  0.64052037  0.68964015     1.26350
O196        O  0.82761521  0.73018521  0.63994571    -0.67060
O197        O  0.79410919  0.63693509  0.73502308    -0.79350
C198        C  0.71598880  0.59055589  0.67619142     0.84090
O199        O  0.74750127  0.59169568  0.68834342    -0.66530
Ni200      Ni  0.89023815  0.69942948  0.71507771     1.27450
Ni201      Ni  0.85175158  0.69450972  0.64414232     1.26060
H202        H  0.80761375  0.62455107  0.63629637     0.38640
C203        C  0.74366627  0.58335004  0.93566018     0.02700
C204        C  0.77321041  0.57661819  0.95052608    -0.13450
C205        C  0.80782022  0.58210122  0.93380807     0.00200
C206        C  0.81338581  0.59608997  0.90240193    -0.11970
C207        C  0.78490487  0.60484521  0.88789982     0.02700
C208        C  0.74982097  0.59809335  0.90451320    -0.11390
H209        H  0.76830523  0.56534066  0.97464764     0.08290
H210        H  0.83955542  0.59955985  0.88902418     0.05820
H211        H  0.72669499  0.60279966  0.89285587     0.05670
C212        C  0.85046914  0.77866261  0.40797100     0.02700
C213        C  0.88711497  0.78928876  0.39172027    -0.13450
C214        C  0.91586324  0.77928075  0.40448156     0.00200
C215        C  0.90858936  0.76069228  0.43448516    -0.11970
C216        C  0.87186233  0.74920141  0.45041108     0.02700
C217        C  0.84239654  0.75653088  0.43631170    -0.11390
H218        H  0.89335176  0.80534718  0.36942477     0.08290
H219        H  0.93128848  0.75453381  0.44520266     0.05820
H220        H  0.81390405  0.74732522  0.44871440     0.05670
O221        O  0.05964688  0.28936423  0.33205161    -0.81320
O222        O  0.23802348  0.41755471  0.31465815    -0.66010
O223        O  0.14325436  0.31618666  0.32218726    -1.12610
C224        C  0.16546358  0.33325499  0.43120995     1.05570
O225        O  0.27219477  0.40412332  0.35158768    -0.79210
O226        O  0.23160119  0.32822984  0.36998230    -0.66800
Ni227      Ni  0.09641425  0.30376992  0.29654793     1.34870
C228        C  0.20252620  0.29319203  0.37386280     0.84310
O229        O  0.19031782  0.36565743  0.27214410    -0.79750
O230        O  0.12822430  0.31712916  0.25830726    -0.90030
C231        C  0.27102332  0.42244578  0.32672026     0.83880
O232        O  0.09914169  0.35502898  0.29588016    -0.68230
O233        O  0.20288871  0.34982460  0.42301437    -0.87520
C234        C  0.12483483  0.38940200  0.30566958     0.84710
C235        C  0.16392892  0.34485508  0.25142566     1.06280
H236        H  0.18217190  0.39014927  0.36913715     0.38080
O237        O  0.18786919  0.36909755  0.36263900    -1.10180
O238        O  0.16563012  0.28632524  0.37450746    -0.66830
Ni239      Ni  0.13925802  0.31920987  0.36706706     1.26350
O240        O  0.15949814  0.39659217  0.31613221    -0.67060
O241        O  0.13661556  0.32452999  0.41166705    -0.79350
C242        C  0.05746644  0.26859977  0.35631371     0.84090
O243        O  0.08892896  0.27086275  0.36933662    -0.66530
Ni244      Ni  0.23461246  0.37614923  0.38548162     1.27450
Ni245      Ni  0.18967935  0.36749066  0.31751090     1.26060
H246        H  0.15154390  0.29640423  0.31747641     0.38640
C247        C  0.24364802  0.41767396  0.07599780     0.02700
C248        C  0.21814234  0.42999424  0.06086424    -0.13450
C249        C  0.18075556  0.42207370  0.07447646     0.00200
C250        C  0.16958528  0.40246103  0.10393078    -0.11970
C251        C  0.19408968  0.38893328  0.11885852     0.02700
C252        C  0.22963909  0.39433679  0.10381572    -0.11390
H253        H  0.22826258  0.44766826  0.03934171     0.08290
H254        H  0.14275910  0.39941417  0.11604391     0.05820
H255        H  0.24877159  0.38431243  0.11572159     0.05670
C256        C  0.15860208  0.24595591  0.60051094     0.02700
C257        C  0.12117659  0.23257890  0.61636544    -0.13450
C258        C  0.09311915  0.24483494  0.60608149     0.00200
C259        C  0.10160417  0.26835858  0.57840405    -0.11970
C260        C  0.13765482  0.27986980  0.56146167     0.02700
C261        C  0.16706659  0.27108770  0.57382299    -0.11390
H262        H  0.11342072  0.21199969  0.63619938     0.08290
H263        H  0.07917357  0.27588847  0.56911355     0.05820
H264        H  0.19541722  0.28117253  0.56101590     0.05670
O265        O  0.60513137  0.73487099  0.36452123    -0.81320
O266        O  0.73498842  0.91990211  0.36715950    -0.66010
O267        O  0.63828513  0.81956356  0.36569388    -1.12610
C268        C  0.66078577  0.83023808  0.25460727     1.05570
O269        O  0.71872441  0.94570709  0.32595077    -0.79210
O270        O  0.64489815  0.89918385  0.30098188    -0.66800
Ni271      Ni  0.63326453  0.77779058  0.39439260     1.34870
C272        C  0.61059254  0.86816987  0.30453952     0.84310
O273        O  0.68295581  0.87712089  0.41186281    -0.79750
O274        O  0.65950464  0.81438225  0.42906136    -0.90030
C275        C  0.73787190  0.94963094  0.35162364     0.83880
O276        O  0.68350024  0.78036034  0.38245299    -0.68230
O277        O  0.67766408  0.86790635  0.25919585    -0.87520
C278        C  0.71820721  0.81128883  0.38030459     0.84710
C279        C  0.67630356  0.85198165  0.43398540     1.06280
H280        H  0.71409297  0.85743390  0.31961118     0.38080
O281        O  0.69135761  0.86214659  0.32337722    -1.10180
O282        O  0.60657054  0.83370188  0.31119178    -0.66830
Ni283      Ni  0.64301596  0.81210657  0.32127728     1.26350
O284        O  0.72302640  0.84665966  0.37668284    -0.67060
O285        O  0.64962335  0.80502543  0.27725218    -0.79350
C286        C  0.58904427  0.73169497  0.33745990     0.84090
O287        O  0.59580999  0.76171733  0.32054396    -0.66530
Ni288      Ni  0.69738052  0.90403876  0.29460588     1.27450
Ni289      Ni  0.68744096  0.86958849  0.36757003     1.26060
H290        H  0.61555673  0.82430648  0.36937655     0.38640
C291        C  0.57663432  0.82427057  0.08454971     0.02700
C292        C  0.56739404  0.79007406  0.06684903    -0.13450
C293        C  0.57466528  0.76006223  0.07908367     0.00200
C294        C  0.59404832  0.76520157  0.10829190    -0.11970
C295        C  0.60410253  0.79956711  0.12622065     0.02700
C296        C  0.59477583  0.82884973  0.11447485    -0.11390
H297        H  0.55327048  0.78617275  0.04378894     0.08290
H298        H  0.60013612  0.74199720  0.11748538     0.05820
H299        H  0.60114297  0.85475850  0.12871246     0.05670
C300        C  0.76669119  0.86048850  0.60496583     0.02700
C301        C  0.77432934  0.89497550  0.62240870    -0.13450
C302        C  0.76777850  0.92528804  0.60864946     0.00200
C303        C  0.75229865  0.92030088  0.57775675    -0.11970
C304        C  0.74341703  0.88589373  0.56048121     0.02700
C305        C  0.75175486  0.85675417  0.57376863    -0.11390
H306        H  0.78476659  0.89802016  0.64665221     0.08290
H307        H  0.74652339  0.94311712  0.56726234     0.05820
H308        H  0.74557854  0.83051155  0.56003350     0.05670
O309        O  0.26092555  0.06154334  0.68540405    -0.81320
O310        O  0.39985942  0.24298538  0.69488119    -0.66010
O311        O  0.29954127  0.14613025  0.68782065    -1.12610
C312        C  0.32432198  0.15872530  0.57832665     1.05570
O313        O  0.39444863  0.27181810  0.65059984    -0.79210
O314        O  0.31899743  0.23164861  0.62790027    -0.66800
Ni315      Ni  0.29140700  0.10258060  0.71531976     1.34870
C316        C  0.28316655  0.20241750  0.62910479     0.84310
O317        O  0.34191899  0.20010898  0.73567850    -0.79750
O318        O  0.32004629  0.13674615  0.75043831    -0.90030
C319        C  0.40758591  0.27378140  0.67855711     0.83880
O320        O  0.33868154  0.10323044  0.69917685    -0.68230
O321        O  0.34366559  0.19615559  0.58374039    -0.87520
C322        C  0.37452011  0.13119701  0.70280343     0.84710
C323        C  0.33473363  0.17369577  0.75677868     1.06280
H324        H  0.37898915  0.18057144  0.64541193     0.38080
O325        O  0.35743075  0.18726495  0.64803193    -1.10180
O326        O  0.27518510  0.16609853  0.63296221    -0.66830
Ni327      Ni  0.30656144  0.13937740  0.64379850     1.26350
O328        O  0.38229758  0.16772264  0.70349212    -0.67060
O329        O  0.31417068  0.13259438  0.60008499    -0.79350
C330        C  0.24764092  0.06018834  0.65769278     0.84090
O331        O  0.25697885  0.09094639  0.64095617    -0.66530
Ni332      Ni  0.36829147  0.23084858  0.61938164     1.27450
Ni333      Ni  0.35041362  0.19413907  0.69204327     1.26060
H334        H  0.27745376  0.15210223  0.69094062     0.38640
C335        C  0.40252713  0.18018553  0.93284901     0.02700
C336        C  0.38767567  0.17490682  0.90190941    -0.13450
C337        C  0.38295725  0.20534300  0.88695951     0.00200
C338        C  0.39421216  0.24141962  0.90274253    -0.11970
C339        C  0.40841157  0.24645570  0.93402311     0.02700
C340        C  0.41103874  0.21506066  0.94926517    -0.11390
H341        H  0.38156196  0.14806817  0.88905306     0.08290
H342        H  0.39280729  0.26577100  0.89043931     0.05820
H343        H  0.42248981  0.21887406  0.97328304     0.05670
C344        C  0.23774072  0.16473711  0.40968997     0.02700
C345        C  0.23180567  0.13239074  0.39034066    -0.13450
C346        C  0.23943965  0.10212928  0.40220593     0.00200
C347        C  0.25570675  0.10542765  0.43246356    -0.11970
C348        C  0.26262694  0.13765976  0.45164402     0.02700
C349        C  0.25233130  0.16646813  0.44075609    -0.11390
H350        H  0.22047629  0.13020727  0.36644257     0.08290
H351        H  0.26188586  0.08218222  0.44146582     0.05820
H352        H  0.25629840  0.19056765  0.45632342     0.05670
O353        O  0.54002277  0.60993230  0.98786913    -0.81320
O354        O  0.49577520  0.42860469  0.98248790    -0.66010
O355        O  0.49135386  0.52618075  0.98206074    -1.12610
C356        C  0.49665197  0.51376235  0.09436724     1.05570
O357        O  0.45041110  0.40172870  0.02120136    -0.79210
O358        O  0.42093803  0.44356596  0.05135738    -0.66800
Ni359      Ni  0.52876327  0.57025668  0.95624731     1.34870
C360        C  0.41193675  0.47036277  0.04325027     0.84310
O361        O  0.48919355  0.47239322  0.93610710    -0.79750
O362        O  0.52144669  0.53674877  0.92055385    -0.90030
C363        C  0.46738223  0.39850827  0.99621208     0.83880
O364        O  0.57654790  0.56822287  0.96911047    -0.68230
O365        O  0.48639488  0.47695797  0.08998940    -0.87520
C366        C  0.58263959  0.53876321  0.97469602     0.84710
C367        C  0.50452546  0.49950572  0.91481929     1.06280
H368        H  0.52965464  0.49340609  0.03122796     0.38080
O369        O  0.50169023  0.48531274  0.02595707    -1.10180
O370        O  0.43768455  0.50473847  0.03220636    -0.66830
Ni371      Ni  0.49669133  0.53257403  0.02698969     1.26350
O372        O  0.55358015  0.50310158  0.97730867    -0.67060
O373        O  0.50318038  0.53851154  0.07185659    -0.79350
C374        C  0.52119446  0.61254170  0.01177903     0.84090
O375        O  0.49451125  0.58148282  0.02600196    -0.66530
Ni376      Ni  0.47033515  0.44167763  0.05403191     1.27450
Ni377      Ni  0.49509058  0.47801288  0.98122847     1.26060
H378        H  0.46411479  0.51989349  0.97587759     0.38640
C379        C  0.55925446  0.49036871  0.73494154     0.02700
C380        C  0.52949763  0.45588409  0.72003107    -0.13450
C381        C  0.49563667  0.42762836  0.73702209     0.00200
C382        C  0.48923027  0.43516812  0.76815762    -0.11970
C383        C  0.51719988  0.47062981  0.78279209     0.02700
C384        C  0.55231983  0.49804222  0.76619432    -0.11390
H385        H  0.53418953  0.44943262  0.69591912     0.08290
H386        H  0.46370258  0.41252376  0.78149585     0.05820
H387        H  0.57524752  0.52424455  0.77827029     0.05670
C388        C  0.42700664  0.52359581  0.26817181     0.02700
C389        C  0.45626265  0.55506346  0.28626375    -0.13450
C390        C  0.49352789  0.58279350  0.27287568     0.00200
C391        C  0.50359929  0.57700176  0.24221406    -0.11970
C392        C  0.47553973  0.54453490  0.22440159     0.02700
C393        C  0.43685464  0.51867990  0.23700444    -0.11390
H394        H  0.44912750  0.55948936  0.31026584     0.08290
H395        H  0.53230621  0.59867034  0.23172935     0.05820
H396        H  0.41429943  0.49526317  0.22232555     0.05670
C397        C  0.47792368  0.54998099  0.13514550    -0.02270
C398        C  0.49775969  0.52745367  0.12745303     0.07410
C399        C  0.51352597  0.51376991  0.15217396    -0.02390
C400        C  0.50697716  0.52002631  0.18399893    -0.02390
C401        C  0.48496523  0.54015856  0.19126855     0.07540
C402        C  0.47134533  0.55593175  0.16691042    -0.02580
Br403      Br  0.44205727  0.58446098  0.17736226    -0.01130
Br404      Br  0.45532848  0.56953058  0.10298701    -0.01200
Br405      Br  0.52688953  0.49994746  0.21783728    -0.01160
Br406      Br  0.54503807  0.48736347  0.14267792    -0.01150
C407        C  0.47427242  0.48409132  0.86055098    -0.02270
C408        C  0.50509441  0.48822508  0.88165400     0.07410
C409        C  0.53956633  0.48687290  0.87009454    -0.02390
C410        C  0.54221880  0.47869178  0.83823310    -0.02390
C411        C  0.51242462  0.47630262  0.81676909     0.07540
C412        C  0.47831365  0.47900928  0.82796200    -0.02580
Br413      Br  0.43831955  0.47792672  0.79863852    -0.01130
Br414      Br  0.42783304  0.48759177  0.87622432    -0.01200
Br415      Br  0.58615005  0.46928560  0.82455338    -0.01160
Br416      Br  0.58546788  0.50038266  0.89683029    -0.01150
C417        C  0.47723507  0.34177219  0.97834032    -0.02270
C418        C  0.45174069  0.35897003  0.98159293     0.07410
C419        C  0.41161362  0.33897444  0.96987829    -0.02390
C420        C  0.39700047  0.30167655  0.95499436    -0.02390
C421        C  0.42326711  0.28534671  0.95022310     0.07540
C422        C  0.46375618  0.30598245  0.96155454    -0.02580
Br423      Br  0.50216165  0.28717418  0.95281102    -0.01130
Br424      Br  0.52960868  0.36579639  0.99884812    -0.01200
Br425      Br  0.34057453  0.27251745  0.94236044    -0.01160
Br426      Br  0.37696769  0.36321269  0.97334972    -0.01150
C427        C  0.31659358  0.17003727  0.81402953    -0.02270
C428        C  0.34620909  0.18594216  0.78985727     0.07410
C429        C  0.38762602  0.20968304  0.79777504    -0.02390
C430        C  0.39940440  0.21746795  0.82961097    -0.02390
C431        C  0.36992674  0.20066336  0.85368538     0.07540
C432        C  0.32849104  0.17728663  0.84594954    -0.02580
Br433      Br  0.28832357  0.15470281  0.87921579    -0.01130
Br434      Br  0.25982509  0.13793890  0.80338472    -0.01200
Br435      Br  0.45626622  0.24926901  0.84040709    -0.01160
Br436      Br  0.42891328  0.22792866  0.76547143    -0.01150
C437        C  0.46670329  0.32396935  0.70967763    -0.02270
C438        C  0.43030013  0.31346152  0.69322144     0.07410
C439        C  0.41399743  0.34014349  0.69266897    -0.02390
C440        C  0.43536780  0.37782416  0.70704544    -0.02390
C441        C  0.47116509  0.38751885  0.72387430     0.07540
C442        C  0.48531237  0.35957599  0.72686550    -0.02580
Br443      Br  0.52832915  0.36870404  0.75625530    -0.01130
Br444      Br  0.49404781  0.29254839  0.70602086    -0.01200
Br445      Br  0.41534772  0.41585011  0.70466471    -0.01160
Br446      Br  0.36164347  0.32490163  0.67372259    -0.01150
C447        C  0.26792853  0.12142251  0.53951668    -0.02270
C448        C  0.31008168  0.14604134  0.54550368     0.07410
C449        C  0.33682963  0.16489999  0.51983823    -0.02390
C450        C  0.32135632  0.16170239  0.48899993    -0.02390
C451        C  0.27912521  0.13991659  0.48370843     0.07540
C452        C  0.25259311  0.11888817  0.50873908    -0.02580
Br453      Br  0.19471885  0.08854373  0.50092749    -0.01130
Br454      Br  0.22956253  0.09492441  0.57337377    -0.01200
Br455      Br  0.35779750  0.18762934  0.45393496    -0.01160
Br456      Br  0.39477176  0.19505499  0.52691199    -0.01150
C457        C  0.50585771  0.65867519  0.04404381    -0.02270
C458        C  0.53338158  0.65294019  0.02485994     0.07410
C459        C  0.57353944  0.68544872  0.02053973    -0.02390
C460        C  0.58709711  0.72009231  0.03896753    -0.02390
C461        C  0.56085977  0.72293516  0.06112201     0.07540
C462        C  0.52007653  0.69255839  0.06337251    -0.02580
Br463      Br  0.48378780  0.69690588  0.09341935    -0.01130
Br464      Br  0.44786289  0.62406372  0.03991982    -0.01200
Br465      Br  0.64181801  0.76418877  0.03410103    -0.01160
Br466      Br  0.61029812  0.68570609  0.98839144    -0.01150
C467        C  0.57595647  0.66253756  0.32338693    -0.02270
C468        C  0.56277676  0.69165997  0.32405220     0.07410
C469        C  0.52713481  0.68458225  0.30767936    -0.02390
C470        C  0.50710146  0.65064119  0.28863977    -0.02390
C471        C  0.51877196  0.62068328  0.28944691     0.07540
C472        C  0.55303329  0.62644415  0.30695301    -0.02580
Br473      Br  0.56923237  0.58548631  0.30714676    -0.01130
Br474      Br  0.62674773  0.67277453  0.34269480    -0.01200
Br475      Br  0.46691825  0.64760574  0.25863694    -0.01160
Br476      Br  0.50503973  0.72093478  0.31146038    -0.01150
C477        C  0.67628754  0.83942349  0.19612078    -0.02270
C478        C  0.65087422  0.81581898  0.22124825     0.07410
C479        C  0.61251283  0.78265188  0.21377116    -0.02390
C480        C  0.59748360  0.77726833  0.18264706    -0.02390
C481        C  0.62146326  0.80335506  0.15831204     0.07540
C482        C  0.66159275  0.83312841  0.16480338    -0.02580
Br483      Br  0.69642965  0.86520784  0.13066232    -0.01130
Br484      Br  0.73179585  0.87978377  0.20421726    -0.01200
Br485      Br  0.54225411  0.73621810  0.17395187    -0.01160
Br486      Br  0.57795666  0.74572078  0.24568726    -0.01150
C487        C  0.68300983  0.85549285  0.52393929    -0.02270
C488        C  0.72516715  0.88045026  0.52840280     0.07410
C489        C  0.74991147  0.90066347  0.50224572    -0.02390
C490        C  0.73306235  0.89443709  0.47160696    -0.02390
C491        C  0.69143862  0.86652367  0.46660440     0.07540
C492        C  0.66631899  0.84801039  0.49317087    -0.02580
Br493      Br  0.60876628  0.81283791  0.48748597    -0.01130
Br494      Br  0.64797631  0.83217510  0.56010600    -0.01200
Br495      Br  0.76890983  0.92088912  0.43654647    -0.01160
Br496      Br  0.80762575  0.93514568  0.50833779    -0.01150
C497        C  0.20313728  0.23501957  0.64067326    -0.02270
C498        C  0.18773458  0.23127923  0.60944527     0.07410
C499        C  0.20294904  0.21604492  0.58565121    -0.02390
C500        C  0.23607787  0.20983428  0.59195982    -0.02390
C501        C  0.24947252  0.21101756  0.62315711     0.07540
C502        C  0.23250589  0.22296940  0.64769089    -0.02580
Br503      Br  0.25146077  0.22492324  0.69044717    -0.01130
Br504      Br  0.18737290  0.25954580  0.67351521    -0.01200
Br505      Br  0.26629130  0.20535674  0.55694672    -0.01160
Br506      Br  0.17788998  0.20112451  0.54445410    -0.01150
C507        C  0.31799683  0.45090458  0.08911878    -0.02270
C508        C  0.28705177  0.43401608  0.06598888     0.07410
C509        C  0.29838739  0.43265926  0.03413426    -0.02390
C510        C  0.33999140  0.44861211  0.02597387    -0.02390
C511        C  0.36966643  0.46116143  0.04992444     0.07540
C512        C  0.35775557  0.45976031  0.08168621    -0.02580
Br513      Br  0.39373038  0.46459453  0.11596349    -0.01130
Br514      Br  0.30800878  0.46529882  0.13076212    -0.01200
Br515      Br  0.35622946  0.45055593  0.98246255    -0.01160
Br516      Br  0.25767580  0.40621449  0.00196435    -0.01150
C517        C  0.19134842  0.18842332  0.38466596    -0.02270
C518        C  0.22948330  0.19717764  0.39773794     0.07410
C519        C  0.25986548  0.23759570  0.40025212    -0.02390
C520        C  0.25079710  0.26870682  0.39368727    -0.02390
C521        C  0.21275846  0.26015312  0.37988490     0.07540
C522        C  0.18426534  0.21965418  0.37379917    -0.02580
Br523      Br  0.13674525  0.20622888  0.34846701    -0.01130
Br524      Br  0.14719746  0.13402490  0.38352392    -0.01200
Br525      Br  0.29070255  0.32216935  0.40666572    -0.01160
Br526      Br  0.31506623  0.25091338  0.41138053    -0.01150
C527        C  0.16466899  0.33579027  0.52118299    -0.02270
C528        C  0.14187892  0.29463234  0.52837128     0.07410
C529        C  0.12529309  0.26668460  0.50357677    -0.02390
C530        C  0.13160911  0.27965921  0.47189369    -0.02390
C531        C  0.15514899  0.32075637  0.46461471     0.07540
C532        C  0.17141158  0.34886462  0.48933334    -0.02580
Br533      Br  0.20250533  0.40523451  0.47952116    -0.01130
Br534      Br  0.18728739  0.37390933  0.55504067    -0.01200
Br535      Br  0.11043697  0.24035710  0.43850354    -0.01160
Br536      Br  0.09592959  0.21004835  0.51254198    -0.01150
C537        C  0.19434674  0.40627649  0.17559069    -0.02270
C538        C  0.18710532  0.37690308  0.15267100     0.07410
C539        C  0.17411272  0.33703238  0.16224392    -0.02390
C540        C  0.16759592  0.32640216  0.19464846    -0.02390
C541        C  0.17417437  0.35571148  0.21758538     0.07540
C542        C  0.18770198  0.39572847  0.20777445    -0.02580
Br543      Br  0.19470275  0.43637567  0.23784618    -0.01130
Br544      Br  0.21369238  0.46152151  0.16301642    -0.01200
Br545      Br  0.15074108  0.27198905  0.20759699    -0.01160
Br546      Br  0.16417064  0.29693700  0.13080562    -0.01150
C547        C  0.36310453  0.51426583  0.29527786    -0.02270
C548        C  0.38577145  0.49727096  0.28163065     0.07410
C549        C  0.36945010  0.45515591  0.28227102    -0.02390
C550        C  0.33078360  0.43070602  0.29563601    -0.02390
C551        C  0.30963004  0.44816793  0.31049662     0.07540
C552        C  0.32640603  0.48989337  0.31115089    -0.02580
Br553      Br  0.30115882  0.51386904  0.33635066    -0.01130
Br554      Br  0.38011924  0.57052231  0.29134088    -0.01200
Br555      Br  0.30667434  0.37305303  0.29392808    -0.01160
Br556      Br  0.40066382  0.43051959  0.26712425    -0.01150
C557        C  0.80761460  0.81035198  0.42065438    -0.02270
C558        C  0.82113082  0.79253247  0.39778930     0.07410
C559        C  0.80234773  0.78369159  0.36758968    -0.02390
C560        C  0.77032349  0.79235030  0.36094754    -0.02390
C561        C  0.75451973  0.80613784  0.38519984     0.07540
C562        C  0.77204413  0.81272749  0.41548020    -0.02580
Br563      Br  0.74345461  0.81661796  0.45172080    -0.01130
Br564      Br  0.83769364  0.83227935  0.45939439    -0.01200
Br565      Br  0.74615884  0.78295336  0.31945566    -0.01160
Br566      Br  0.81780007  0.75719165  0.33607403    -0.01150
C567        C  0.69701274  0.59750863  0.96890537    -0.02270
C568        C  0.70419568  0.57034721  0.95139428     0.07410
C569        C  0.67381863  0.53001963  0.94949923    -0.02390
C570        C  0.63561610  0.51748653  0.96353852    -0.02390
C571        C  0.62566282  0.54642615  0.97514243     0.07540
C572        C  0.65780387  0.58545791  0.98100474    -0.02580
Br573      Br  0.64915025  0.62090101  0.00825228    -0.01130
Br574      Br  0.74043559  0.65141873  0.97506052    -0.01200
Br575      Br  0.59847342  0.46079261  0.96683940    -0.01160
Br576      Br  0.68281783  0.49267527  0.92469320    -0.01150
C577        C  0.65353213  0.58241037  0.70362556    -0.02270
C578        C  0.67583269  0.56491410  0.69062360     0.07410
C579        C  0.65919842  0.52316718  0.69078102    -0.02390
C580        C  0.62224607  0.49901293  0.70646439    -0.02390
C581        C  0.59907437  0.51612857  0.71903093     0.07540
C582        C  0.61458519  0.55802493  0.71661799    -0.02580
Br583      Br  0.58200779  0.58224864  0.72937554    -0.01130
Br584      Br  0.67673332  0.64001395  0.70426025    -0.01200
Br585      Br  0.60611503  0.44309326  0.71203375    -0.01160
Br586      Br  0.68509112  0.49875092  0.66693070    -0.01150
C587        C  0.81354738  0.67067163  0.81422769    -0.02270
C588        C  0.80663811  0.64235074  0.79031972     0.07410
C589        C  0.79040528  0.60142403  0.79870959    -0.02390
C590        C  0.78206703  0.58920531  0.83054689    -0.02390
C591        C  0.79037715  0.61768866  0.85435254     0.07540
C592        C  0.80555969  0.65833304  0.84618774    -0.02580
Br593      Br  0.81664745  0.69713934  0.87904398    -0.01130
Br594      Br  0.83318527  0.72623523  0.80328202    -0.01200
Br595      Br  0.75974153  0.53325053  0.84185138    -0.01160
Br596      Br  0.78239487  0.56184579  0.76732016    -0.01150
C597        C  0.74394801  0.75421192  0.62631962    -0.02270
C598        C  0.78259875  0.75976641  0.63682414     0.07410
C599        C  0.81356431  0.79962146  0.64220913    -0.02390
C600        C  0.80925570  0.83264229  0.63136932    -0.02390
C601        C  0.77165591  0.82677486  0.61920166     0.07540
C602        C  0.73838401  0.78756939  0.61938657    -0.02580
Br603      Br  0.68416751  0.77951144  0.61139558    -0.01130
Br604      Br  0.69716335  0.70178543  0.61996508    -0.01200
Br605      Br  0.85608759  0.88535481  0.63151371    -0.01160
Br606      Br  0.85981371  0.80975651  0.66795431    -0.01150
C607        C  0.82405998  0.67783211  0.51995412    -0.02270
C608        C  0.84340424  0.70334855  0.54581209     0.07410
C609        C  0.87424316  0.74316021  0.53995376    -0.02390
C610        C  0.88503876  0.75740708  0.50868066    -0.02390
C611        C  0.86474303  0.73226037  0.48296308     0.07540
C612        C  0.83456965  0.69234083  0.48867931    -0.02580
Br613      Br  0.80759120  0.65757415  0.45345137    -0.01130
Br614      Br  0.78365371  0.62263984  0.52714170    -0.01200
Br615      Br  0.92594016  0.81241555  0.50112076    -0.01160
Br616      Br  0.89941087  0.77984802  0.57446291    -0.01150
C617        C  0.21661459  0.96123371  0.61877354    -0.02270
C618        C  0.17372332  0.94425790  0.61832132     0.07410
C619        C  0.15545333  0.96547988  0.63245662    -0.02390
C620        C  0.17981334  0.00353014  0.64544763    -0.02390
C621        C  0.22217671  0.02082092  0.64403550     0.07540
C622        C  0.24072078  0.99979380  0.63098629    -0.02580
Br623      Br  0.29942206  0.02435449  0.62962121    -0.01130
Br624      Br  0.24273807  0.93111088  0.60456561    -0.01200
Br625      Br  0.15561437  0.03252703  0.66542685    -0.01160
Br626      Br  0.09752531  0.94459585  0.63400633    -0.01150
C627        C  0.02080711  0.82584387  0.61508562    -0.02990
C628        C  0.04906707  0.81184724  0.61233075     0.07410
C629        C  0.03808588  0.77253327  0.62189457    -0.02390
C630        C  0.99909847  0.74802178  0.63486929    -0.02390
C631        C  0.97360309  0.76466190  0.64242359     0.07540
C632        C  0.98559852  0.80438331  0.63311469    -0.02580
Br633      Br  0.95670631  0.83166840  0.64684969    -0.01130
Br634      Br  0.02673236  0.87078804  0.59004338    -0.01200
Br635      Br  0.97937770  0.69129918  0.63819360    -0.01160
Br636      Br  0.07568053  0.75209864  0.61612633    -0.01150
C637        C  0.17716062  0.99451677  0.37705856    -0.02270
C638        C  0.20593776  0.98803901  0.35947935     0.07410
C639        C  0.24603044  0.02124424  0.35539044    -0.02390
C640        C  0.25606148  0.05916471  0.36779673    -0.02390
C641        C  0.22712011  0.06466691  0.38476762     0.07540
C642        C  0.18788442  0.03251748  0.38943867    -0.02580
Br643      Br  0.14927061  0.04065043  0.41451388    -0.01130
Br644      Br  0.12280279  0.95267302  0.38616587    -0.01200
Br645      Br  0.31023210  0.10412027  0.36274988    -0.01160
Br646      Br  0.28985034  0.01646243  0.33528104    -0.01150
C647        C  0.99684036  0.75910279  0.36902444    -0.02270
C648        C  0.02902785  0.79853548  0.36294209     0.07410
C649        C  0.01923070  0.83007100  0.36255500    -0.02390
C650        C  0.98264910  0.82457331  0.37652676    -0.02390
C651        C  0.95283645  0.78601685  0.38648950     0.07540
C652        C  0.95883188  0.75301546  0.37999864    -0.02580
Br653      Br  0.91449991  0.69903673  0.38599840    -0.01130
Br654      Br  0.00275978  0.71226155  0.36112708    -0.01200
Br655      Br  0.97551449  0.87063970  0.38426431    -0.01160
Br656      Br  0.05251693  0.87899585  0.33971116    -0.01150
C657        C  0.17351304  0.84487774  0.47809413    -0.02270
C658        C  0.14840771  0.84919200  0.45526094     0.07410
C659        C  0.11962235  0.86091087  0.46468025    -0.02390
C660        C  0.11621447  0.86860719  0.49663166    -0.02390
C661        C  0.14032691  0.86304186  0.51950113     0.07540
C662        C  0.16920522  0.85147807  0.51027303    -0.02580
Br663      Br  0.20157499  0.84319242  0.54190700    -0.01130
Br664      Br  0.21366987  0.82991253  0.46531005    -0.01200
Br665      Br  0.07782491  0.88603909  0.50928965    -0.01160
Br666      Br  0.08171609  0.86245899  0.43456037    -0.01150
C667        C  0.22697020  0.84204627  0.19870242    -0.02270
C668        C  0.18816097  0.83215365  0.21066212     0.07410
C669        C  0.15394886  0.81256519  0.19093444    -0.02390
C670        C  0.15872068  0.80403046  0.15917534    -0.02390
C671        C  0.19729288  0.81099408  0.14783870     0.07540
C672        C  0.23098122  0.82843948  0.16875908    -0.02580
Br673      Br  0.28235366  0.83086200  0.15848621    -0.01130
Br674      Br  0.27543248  0.87578548  0.22251086    -0.01200
Br675      Br  0.11254659  0.78591187  0.13136051    -0.01160
Br676      Br  0.10090521  0.80018454  0.20693138    -0.01150
C677        C  0.52495586  0.89490262  0.31126241    -0.02270
C678        C  0.50906148  0.88705327  0.28004007     0.07410
C679        C  0.52503495  0.87003135  0.25837080    -0.02390
C680        C  0.55865251  0.86514870  0.26644173    -0.02390
C681        C  0.57391840  0.87212690  0.29746539     0.07540
C682        C  0.55640448  0.88622936  0.32010443    -0.02580
Br683      Br  0.57676155  0.89490078  0.36282754    -0.01130
Br684      Br  0.50619600  0.92006526  0.34151107    -0.01200
Br685      Br  0.58595567  0.85238985  0.23366352    -0.01160
Br686      Br  0.50027686  0.85075168  0.21778169    -0.01150
C687        C  0.33799186  0.84739703  0.27931114    -0.02270
C688        C  0.37220750  0.88320610  0.28848253     0.07410
C689        C  0.36741889  0.90928413  0.30929868    -0.02390
C690        C  0.32814983  0.90156800  0.31848672    -0.02390
C691        C  0.29325786  0.86813569  0.30621094     0.07540
C692        C  0.29859177  0.83938968  0.28844154    -0.02580
Br693      Br  0.25280477  0.79070825  0.27319318    -0.01130
Br694      Br  0.34528374  0.81106879  0.25177437    -0.01200
Br695      Br  0.32246938  0.93664090  0.34833110    -0.01160
Br696      Br  0.41488455  0.95692514  0.32356842    -0.01150
C697        C  0.44873146  0.14858802  0.70440130    -0.02270
C698        C  0.40717451  0.12019344  0.70883718     0.07410
C699        C  0.39726968  0.08164252  0.72122374    -0.02390
C700        C  0.42837820  0.07289959  0.72949189    -0.02390
C701        C  0.46917121  0.10361356  0.73021317     0.07540
C702        C  0.47942073  0.14151833  0.71721188    -0.02580
Br703      Br  0.53470151  0.18491322  0.71873995    -0.01130
Br704      Br  0.46441752  0.19556545  0.67844090    -0.01200
Br705      Br  0.41494737  0.01805205  0.73921717    -0.01160
Br706      Br  0.34192164  0.04014543  0.72987156    -0.01150
C707        C  0.36066166  0.88071234  0.05814086    -0.02270
C708        C  0.36686382  0.91497206  0.04046587     0.07410
C709        C  0.33235723  0.91511914  0.02685876    -0.02390
C710        C  0.29253244  0.88400989  0.03381086    -0.02390
C711        C  0.28675603  0.85113448  0.05277343     0.07540
C712        C  0.32107573  0.84858885  0.06327002    -0.02580
Br713      Br  0.31347571  0.80126201  0.08597891    -0.01130
Br714      Br  0.40518281  0.87872119  0.07889675    -0.01200
Br715      Br  0.24559699  0.88679711  0.01837954    -0.01160
Br716      Br  0.33943246  0.95714491  0.99782505    -0.01150
C717        C  0.58559661  0.92056934  0.05005189    -0.02270
C718        C  0.54527191  0.90725470  0.03975388     0.07410
C719        C  0.51526413  0.86728063  0.04550007    -0.02390
C720        C  0.52494872  0.84154434  0.06286376    -0.02390
C721        C  0.56570310  0.85399262  0.07147693     0.07540
C722        C  0.59610875  0.89353285  0.06465118    -0.02580
Br723      Br  0.65253041  0.91041713  0.07361736    -0.01130
Br724      Br  0.62628277  0.97616177  0.04580619    -0.01200
Br725      Br  0.48164767  0.78976139  0.07587041    -0.01160
Br726      Br  0.46142483  0.84646336  0.02760487    -0.01150
C727        C  0.47021550  0.98834980  0.19076852    -0.02270
C728        C  0.46289583  0.94889343  0.19606027     0.07410
C729        C  0.46399503  0.92640601  0.17036177    -0.02390
C730        C  0.47916352  0.94478090  0.14107859    -0.02390
C731        C  0.48218606  0.98258598  0.13420301     0.07540
C732        C  0.47807901  0.00463139  0.15969922    -0.02580
Br733      Br  0.48649867  0.05833648  0.15330198    -0.01130
Br734      Br  0.46797004  0.01925442  0.22590268    -0.01200
Br735      Br  0.49974405  0.91848548  0.11342123    -0.01160
Br736      Br  0.43709473  0.86885192  0.17311683    -0.01150
C737        C  0.47148690  0.14061483  0.96057265    -0.02270
C738        C  0.44578411  0.10843539  0.98091175     0.07410
C739        C  0.40454970  0.10022213  0.98494379    -0.02390
C740        C  0.38998135  0.12286058  0.96823466    -0.02390
C741        C  0.41538062  0.15267644  0.94684294     0.07540
C742        C  0.45558543  0.16058953  0.94221820    -0.02580
Br743      Br  0.48918170  0.19943189  0.91056757    -0.01130
Br744      Br  0.52974541  0.16311602  0.96076629    -0.01200
Br745      Br  0.33493688  0.11346698  0.97426349    -0.01160
Br746      Br  0.36673865  0.05988503  0.01388762    -0.01150
C747        C  0.52976283  0.08314264  0.84674921    -0.02270
C748        C  0.51218458  0.05312581  0.82367207     0.07410
C749        C  0.49440307  0.01244943  0.83245712    -0.02390
C750        C  0.49344193  0.00171438  0.86452220    -0.02390
C751        C  0.51148663  0.03182751  0.88765896     0.07540
C752        C  0.53071599  0.07253169  0.87844957    -0.02580
Br753      Br  0.56302353  0.11383362  0.90828925    -0.01130
Br754      Br  0.55403641  0.13904772  0.83475732    -0.01200
Br755      Br  0.46730681  0.94585228  0.87653104    -0.01160
Br756      Br  0.47162396  0.97169771  0.80040807    -0.01150
C757        C  0.13734293  0.49223711  0.28651405    -0.02270
C758        C  0.09690864  0.48353576  0.28151048     0.07410
C759        C  0.06493297  0.44518538  0.28882271    -0.02390
C760        C  0.07349750  0.41457385  0.29857374    -0.02390
C761        C  0.11456987  0.42280991  0.30257427     0.07540
C762        C  0.14591235  0.46316812  0.29952019    -0.02580
Br763      Br  0.20086525  0.48099013  0.31350916    -0.01130
Br764      Br  0.18160430  0.54221545  0.27148445    -0.01200
Br765      Br  0.02788646  0.36224369  0.30717358    -0.01160
Br766      Br  0.00931265  0.43458655  0.28431619    -0.01150
C767        C  0.06897053  0.62858729  0.28481351    -0.02270
C768        C  0.09915772  0.61647994  0.28402071     0.07410
C769        C  0.13784955  0.64165300  0.29729746    -0.02390
C770        C  0.14606290  0.67819036  0.31111784    -0.02390
C771        C  0.11701701  0.69143142  0.30955410     0.07540
C772        C  0.07848260  0.66666069  0.29628574    -0.02580
Br773      Br  0.03986898  0.68605242  0.29128325    -0.01130
Br774      Br  0.01408802  0.59282029  0.27103753    -0.01200
Br775      Br  0.19689439  0.70978893  0.33307768    -0.01160
Br776      Br  0.18131635  0.62863294  0.29475337    -0.01150
C777        C  0.84544210  0.50763837  0.71330695    -0.02270
C778        C  0.88562110  0.51580655  0.71953877     0.07410
C779        C  0.91768268  0.55495543  0.71460318    -0.02390
C780        C  0.90954546  0.58683444  0.70854047    -0.02390
C781        C  0.86882669  0.57941331  0.70329849     0.07540
C782        C  0.83745641  0.53867287  0.70323605    -0.02580
Br783      Br  0.78290959  0.52351423  0.68995333    -0.01130
Br784      Br  0.80057443  0.45462312  0.72136062    -0.01200
Br785      Br  0.95587748  0.64010311  0.70908083    -0.01160
Br786      Br  0.97342291  0.56480525  0.71650224    -0.01150
C787        C  0.14771707  0.49002631  0.03206867    -0.02270
C788        C  0.10555197  0.46444080  0.02852191     0.07410
C789        C  0.08800305  0.42544168  0.04147871    -0.02390
C790        C  0.11280401  0.41068056  0.05431178    -0.02390
C791        C  0.15473695  0.43688224  0.05916177     0.07540
C792        C  0.17146252  0.47739332  0.04954705    -0.02580
Br793      Br  0.22567227  0.51683874  0.06230919    -0.01130
Br794      Br  0.17419477  0.54107222  0.01091566    -0.01200
Br795      Br  0.08897430  0.35400932  0.06344387    -0.01160
Br796      Br  0.02981613  0.39357028  0.04513305    -0.01150
C797        C  0.00233748  0.51153366  0.14775666    -0.02270
C798        C  0.03116008  0.52461335  0.12278977     0.07410
C799        C  0.07317142  0.54144844  0.13002566    -0.02390
C800        C  0.08594429  0.54538136  0.16173068    -0.02390
C801        C  0.05720129  0.53344224  0.18633575     0.07540
C802        C  0.01546376  0.51631817  0.17941452    -0.02580
Br803      Br  0.97637754  0.49956797  0.21358214    -0.01130
Br804      Br  0.94464316  0.48567328  0.13904783    -0.01200
Br805      Br  0.14305965  0.56791137  0.17181137    -0.01160
Br806      Br  0.11420590  0.56210565  0.09715603    -0.01150
C807        C  0.16329089  0.68883376  0.04501658    -0.02270
C808        C  0.15398643  0.71931830  0.05297222     0.07410
C809        C  0.11447933  0.71315958  0.04686299    -0.02390
C810        C  0.08305626  0.67515207  0.03749319    -0.02390
C811        C  0.09114151  0.64259965  0.03240153     0.07540
C812        C  0.13264683  0.65165136  0.03327413    -0.02580
Br813      Br  0.14947073  0.61546655  0.01630662    -0.01130
Br814      Br  0.21788133  0.69739325  0.05149605    -0.01200
Br815      Br  0.02976199  0.67009729  0.03065282    -0.01160
Br816      Br  0.10406666  0.75797036  0.05000286    -0.01150
C817        C  0.87873459  0.60071525  0.95124427    -0.02270
C818        C  0.83729912  0.57161296  0.94872347     0.07410
C819        C  0.82420518  0.53238749  0.96040306    -0.02390
C820        C  0.85181862  0.52301262  0.97566985    -0.02390
C821        C  0.89342262  0.55138394  0.97655514     0.07540
C822        C  0.90694333  0.59009763  0.96386756    -0.02580
Br823      Br  0.96431929  0.62793711  0.96174524    -0.01130
Br824      Br  0.89697970  0.65562392  0.93862457    -0.01200
Br825      Br  0.83209407  0.47202868  0.99711097    -0.01160
Br826      Br  0.76931219  0.49014438  0.95388966    -0.01150
C827        C  0.98011682  0.48350236  0.82001085    -0.02270
C828        C  0.94119203  0.47880362  0.81357180     0.07410
C829        C  0.91927413  0.48480284  0.83811070    -0.02390
C830        C  0.93588728  0.49518787  0.86878644    -0.02390
C831        C  0.97311567  0.49551962  0.87641830     0.07540
C832        C  0.99600405  0.49161102  0.85108973    -0.02580
Br833      Br  0.05088604  0.50054170  0.85738674    -0.01130
Br834      Br  0.01230989  0.47984732  0.78578994    -0.01200
Br835      Br  0.90710106  0.51085021  0.89865512    -0.01160
Br836      Br  0.86463996  0.47600372  0.83036739    -0.01150
C837        C  0.82269016  0.03463617  0.39496127    -0.02270
C838        C  0.80900347  0.06310707  0.39590752     0.07410
C839        C  0.77151585  0.05441894  0.38209595    -0.02390
C840        C  0.74773502  0.01710623  0.36753196    -0.02390
C841        C  0.76313928  0.98989327  0.36467496     0.07540
C842        C  0.80166084  0.99984763  0.37710683    -0.02580
Br843      Br  0.82736378  0.96762515  0.36779366    -0.01130
Br844      Br  0.86706780  0.04033819  0.42124990    -0.01200
Br845      Br  0.69352422  0.00294901  0.35324619    -0.01160
Br846      Br  0.75246599  0.09317745  0.38404746    -0.01150
C847        C  0.99309318  0.25807706  0.38191933    -0.02270
C848        C  0.01726149  0.24212545  0.36999007     0.07410
C849        C  0.00250903  0.20060831  0.37029467    -0.02390
C850        C  0.96482725  0.17509968  0.38431853    -0.02390
C851        C  0.93981307  0.19066422  0.39565096     0.07540
C852        C  0.95374446  0.23229587  0.39346444    -0.02580
Br853      Br  0.91856194  0.25415326  0.40474497    -0.01130
Br854      Br  0.01471371  0.31529782  0.38413464    -0.01200
Br855      Br  0.94994622  0.11951527  0.38932875    -0.01160
Br856      Br  0.03297966  0.17832995  0.34993558    -0.01150
C857        C  0.70406455  0.12714235  0.96253264    -0.02270
C858        C  0.70905934  0.16609193  0.95913584     0.07410
C859        C  0.67752341  0.17321571  0.96991492    -0.02390
C860        C  0.64047065  0.14120535  0.98159590    -0.02390
C861        C  0.63228870  0.10077034  0.97918935     0.07540
C862        C  0.66613811  0.09465407  0.97177085    -0.02580
Br863      Br  0.66334602  0.04264403  0.97491500    -0.01130
Br864      Br  0.75014745  0.11849079  0.95468774    -0.01200
Br865      Br  0.60378069  0.15425218  0.00395397    -0.01160
Br866      Br  0.68378990  0.22642648  0.96689789    -0.01150
C867        C  0.87824220  0.30470024  0.96412451    -0.02270
C868        C  0.84124131  0.30047095  0.95242485     0.07410
C869        C  0.83701800  0.33496060  0.94841393    -0.02390
C870        C  0.86992137  0.37352744  0.95486194    -0.02390
C871        C  0.90782708  0.37842570  0.96627080     0.07540
C872        C  0.91120866  0.34306213  0.97092484    -0.02580
Br873      Br  0.96110236  0.34568691  0.98538373    -0.01130
Br874      Br  0.88394119  0.25726121  0.96959082    -0.01200
Br875      Br  0.86347229  0.41910020  0.94339695    -0.01160
Br876      Br  0.78646971  0.32914307  0.93172379    -0.01150
C877        C  0.88684991  0.36915049  0.69614345    -0.02270
C878        C  0.87808591  0.37852123  0.72668545     0.07410
C879        C  0.85923966  0.34713142  0.74893246    -0.02390
C880        C  0.85747113  0.31026333  0.74334075    -0.02390
C881        C  0.86219659  0.29912421  0.71254770     0.07540
C882        C  0.87670670  0.32899222  0.68867799    -0.02580
Br883      Br  0.88660421  0.31559226  0.64692011    -0.01130
Br884      Br  0.91564220  0.41105148  0.66541931    -0.01200
Br885      Br  0.86385183  0.28364038  0.77968573    -0.01160
Br886      Br  0.83601072  0.35384385  0.78783000    -0.01150
C887        C  0.60365907  0.08972463  0.69660818    -0.02270
C888        C  0.59972429  0.09571110  0.72921363     0.07410
C889        C  0.63467761  0.11027137  0.74875685    -0.02390
C890        C  0.67121068  0.11508979  0.73640992    -0.02390
C891        C  0.67676805  0.11600952  0.70359473     0.07540
C892        C  0.64262321  0.10263646  0.68349043    -0.02580
Br893      Br  0.64878387  0.10205195  0.63815136    -0.01130
Br894      Br  0.55633277  0.06169100  0.67004214    -0.01200
Br895      Br  0.70965211  0.11156233  0.76467729    -0.01160
Br896      Br  0.63579005  0.12827072  0.79162449    -0.01150
C897        C  0.83361421  0.18354174  0.82671411    -0.02270
C898        C  0.81393425  0.18924104  0.80019603     0.07410
C899        C  0.78433142  0.20189384  0.80511515    -0.02390
C900        C  0.77539980  0.20928478  0.83594254    -0.02390
C901        C  0.79620027  0.20496297  0.86211009     0.07540
C902        C  0.82492952  0.19160330  0.85748366    -0.02580
Br903      Br  0.85223838  0.18414607  0.89353476    -0.01130
Br904      Br  0.87191271  0.16386044  0.82114601    -0.01200
Br905      Br  0.73617924  0.22775770  0.84235390    -0.01160
Br906      Br  0.75970566  0.21511392  0.76987854    -0.01150
C907        C  0.01304691  0.22803223  0.66897897    -0.02270
C908        C  0.97666949  0.20916646  0.65101591     0.07410
C909        C  0.97954660  0.20106027  0.61872908    -0.02390
C910        C  0.01689607  0.20869823  0.60552661    -0.02390
C911        C  0.05328305  0.23059290  0.62247159     0.07540
C912        C  0.05118535  0.24073491  0.65423823    -0.02580
Br913      Br  0.10033267  0.27443841  0.67714318    -0.01130
Br914      Br  0.01155094  0.23573355  0.71402059    -0.01200
Br915      Br  0.01725118  0.18738376  0.56431823    -0.01160
Br916      Br  0.93473305  0.18499446  0.59010482    -0.01150
C917        C  0.74902069  0.00618386  0.64410516    -0.02270
C918        C  0.78919229  0.03889932  0.64619580     0.07410
C919        C  0.82229117  0.03087953  0.64262304    -0.02390
C920        C  0.81529998  0.99305387  0.63167709    -0.02390
C921        C  0.77533391  0.96211936  0.62616634     0.07540
C922        C  0.74228766  0.96827395  0.63399963    -0.02580
Br923      Br  0.68736771  0.92460194  0.62984742    -0.01130
Br924      Br  0.70244209  0.01213072  0.65602153    -0.01200
Br925      Br  0.86080537  0.98488802  0.62120995    -0.01160
Br926      Br  0.87774931  0.07124026  0.65106753    -0.01150
C927        C  0.83283917  0.18244482  0.53282388    -0.02270
C928        C  0.83569034  0.15645006  0.55538364     0.07410
C929        C  0.84577929  0.12703383  0.54543748    -0.02390
C930        C  0.85416981  0.12438828  0.51351803    -0.02390
C931        C  0.85008563  0.14943945  0.49092976     0.07540
C932        C  0.83955331  0.17859456  0.50053083    -0.02580
Br933      Br  0.83301869  0.21218942  0.46931191    -0.01130
Br934      Br  0.82010412  0.22344120  0.54615022    -0.01200
Br935      Br  0.87172473  0.08651981  0.50074066    -0.01160
Br936      Br  0.84488022  0.08773416  0.57468609    -0.01150
loop_ 
_geom_bond_atom_site_label_1 
_geom_bond_atom_site_label_2 
_geom_bond_distance 
_geom_bond_site_symmetry_2 
_ccdc_geom_bond_type 
O1           Ni7   1.953       .  S
O1           C22   1.280       .  A
O2          Ni25   1.906       .  S
O2           C11   1.272       .  A
O3           Ni7   1.897       .  S
O3          Ni25   1.895       .  S
O3          Ni19   1.909       .  S
O3           H26   0.966       .  S
C4           O21   1.279       .  A
C4           O13   1.273       .  A
C4          C928   1.477       .  S
O5          Ni24   1.921       .  S
O5           C11   1.268       .  A
O6          Ni24   1.917       .  S
O6            C8   1.270       .  A
Ni7          O10   1.955       .  S
Ni7          O12   1.908       .  S
C8           O18   1.274       .  A
C8          C918   1.508       .  S
O9          Ni25   1.899       .  S
O9           C15   1.270       .  A
O10          C15   1.285       .  A
C11         C891   1.473       .  S
O12          C14   1.268       .  A
O13         Ni24   1.912       .  S
C14          O20   1.285       .  A
C14         C881   1.496       .  S
C15         C898   1.494       .  S
H16          O17   0.966       .  S
O17         Ni25   1.903       .  S
O17         Ni19   1.890       .  S
O17         Ni24   1.907       .  S
O18         Ni19   1.944       .  S
Ni19         O23   1.906       .  S
Ni19         O21   1.928       .  S
O20         Ni25   1.970       .  S
C22          O23   1.271       .  A
C22         C908   1.498       .  S
C27         C868   1.498       .  S
C27          C28   1.405       .  A
C27          C32   1.417       .  A
C28          C29   1.401       .  A
C28          H33   1.084       .  S
C29         C901   1.486       .  S
C29          C30   1.400       .  A
C30          C31   1.409       .  A
C30          H34   1.084       .  S
C31         C858   1.506       .  S
C31          C32   1.419       .  A
C32          H35   1.083       .  S
C36         C838   1.473       .  S
C36          C37   1.398       .  A
C36          C41   1.401       .  A
C37          C38   1.402       .  A
C37          H42   1.084       .  S
C38         C931   1.473       .  S
C38          C39   1.400       .  A
C39          C40   1.404       .  A
C39          H43   1.084       .  S
C40         C851   1.484       .  S
C40          C41   1.403       .  A
C41          H44   1.084       .  S
O45         Ni51   1.949       .  S
O45          C66   1.279   1_556  A
O46         Ni69   1.895       .  S
O46          C55   1.266       .  A
O47         Ni51   1.909       .  S
O47         Ni69   1.892   1_455  S
O47         Ni63   1.909   1_556  S
O47          H70   0.966       .  S
C48          O65   1.274       .  A
C48          O57   1.276   1_455  A
C48         C798   1.484       .  S
O49         Ni68   1.933       .  S
O49          C55   1.273   1_554  A
O50         Ni68   1.905   1_455  S
O50          C52   1.267       .  A
Ni51         O54   1.937       .  S
Ni51         O56   1.920   1_455  S
C52          O62   1.283       .  A
C52         C811   1.527       .  S
O53         Ni69   1.921       .  S
O53          C59   1.276       .  A
O54          C59   1.280   1_455  A
C55         C821   1.472       .  S
O56          C58   1.271       .  A
O57         Ni68   1.923       .  S
C58          O64   1.280       .  A
C58         C871   1.522       .  S
C59         C831   1.513       .  S
H60          O61   0.966       .  S
O61         Ni69   1.913   1_554  S
O61         Ni63   1.898   1_655  S
O61         Ni68   1.910       .  S
O62         Ni63   1.966       .  S
Ni63         O67   1.901       .  S
Ni63         O65   1.914       .  S
O64         Ni69   1.958       .  S
C66          O67   1.268       .  A
C66         C788   1.484       .  S
C71         C878   1.504       .  S
C71          C72   1.414       .  A
C71          C76   1.412       .  A
C72          C73   1.402       .  A
C72          H77   1.084       .  S
C73         C828   1.495       .  S
C73          C74   1.398       .  A
C74          C75   1.405       .  A
C74          H78   1.084       .  S
C75         C778   1.494       .  S
C75          C76   1.413       .  A
C76          H79   1.082       .  S
C80         C758   1.477       .  S
C80          C81   1.405       .  A
C80          C85   1.399       .  A
C81          C82   1.407       .  A
C81          H86   1.084       .  S
C82         C768   1.487       .  S
C82          C83   1.405       .  A
C83          C84   1.400       .  A
C83          H87   1.084       .  S
C84         C801   1.473       .  S
C84          C85   1.396       .  A
C85          H88   1.084       .  S
O89         Ni95   1.929       .  S
O89         C110   1.271   1_554  A
O90        Ni113   1.887       .  S
O90          C99   1.263       .  A
O91         Ni95   1.915       .  S
O91        Ni113   1.896   1_545  S
O91        Ni107   1.912   1_554  S
O91         H114   0.966       .  S
C92         O109   1.275       .  A
C92         O101   1.275   1_545  A
C92         C751   1.475       .  S
O93        Ni112   1.937   1_554  S
O93          C99   1.273       .  A
O94        Ni112   1.906   1_545  S
O94          C96   1.267       .  A
Ni95         O98   1.933       .  S
Ni95        O100   1.920   1_545  S
C96         O106   1.284       .  A
C96         C861   1.530       .  S
O97        Ni113   1.910       .  S
O97         C103   1.271       .  A
O98         C103   1.276   1_545  A
C99         C718   1.476       .  S
O100        C102   1.271       .  A
O101       Ni112   1.923       .  S
C102        O108   1.277       .  A
C102        C708   1.507       .  S
C103        C731   1.499       .  S
H104        O105   0.966       .  S
O105       Ni113   1.905   1_556  S
O105       Ni107   1.901   1_565  S
O105       Ni112   1.910       .  S
O106       Ni107   1.970       .  S
Ni107       O111   1.906       .  S
Ni107       O109   1.912       .  S
O108       Ni113   1.950       .  S
C110        O111   1.272       .  A
C110        C738   1.503       .  S
C115        C888   1.487       .  S
C115        C116   1.403       .  A
C115        C120   1.407       .  A
C116        C117   1.394       .  A
C116        H121   1.084       .  S
C117        C748   1.471       .  S
C117        C118   1.395       .  A
C118        C119   1.404       .  A
C118        H122   1.084       .  S
C119        C701   1.483       .  S
C119        C120   1.404       .  A
C120        H123   1.081       .  S
C124        C688   1.481       .  S
C124        C125   1.403       .  A
C124        C129   1.409       .  A
C125        C126   1.397       .  A
C125        H130   1.084       .  S
C126        C728   1.485       .  S
C126        C127   1.405       .  A
C127        C128   1.410       .  A
C127        H131   1.084       .  S
C128        C678   1.504       .  S
C128        C129   1.411       .  A
C129        H132   1.083       .  S
O133       Ni139   1.939       .  S
O133        C154   1.274       .  A
O134       Ni157   1.897       .  S
O134        C143   1.266       .  A
O135       Ni139   1.907       .  S
O135       Ni157   1.900       .  S
O135       Ni151   1.910       .  S
O135        H158   0.966       .  S
C136        O153   1.275       .  A
C136        O145   1.275       .  A
C136        C658   1.474       .  S
O137       Ni156   1.931       .  S
O137        C143   1.270       .  A
O138       Ni156   1.901       .  S
O138        C140   1.268       .  A
Ni139       O142   1.933       .  S
Ni139       O144   1.918       .  S
C140        O150   1.280       .  A
C140        C648   1.509       .  S
O141       Ni157   1.919       .  S
O141        C147   1.277       .  A
O142        C147   1.277       .  A
C143        C771   1.471       .  S
O144        C146   1.272       .  A
O145       Ni156   1.920       .  S
C146        O152   1.270       .  A
C146        C691   1.497       .  S
C147        C668   1.484       .  S
H148        O149   0.966       .  S
O149       Ni157   1.910       .  S
O149       Ni151   1.899       .  S
O149       Ni156   1.902       .  S
O150       Ni151   1.952       .  S
Ni151       O155   1.906       .  S
Ni151       O153   1.918       .  S
O152       Ni157   1.928       .  S
C154        O155   1.270       .  A
C154        C638   1.512       .  S
C159        C711   1.494       .  S
C159        C160   1.409       .  A
C159        C164   1.403       .  A
C160        C161   1.413       .  A
C160        H165   1.083       .  S
C161        C808   1.500       .  S
C161        C162   1.412       .  A
C162        C163   1.410       .  A
C162        H166   1.083       .  S
C163        C671   1.507       .  S
C163        C164   1.407       .  A
C164        H167   1.084       .  S
C168        C628   1.472       .  S
C168        C169   1.396       .  A
C168        C173   1.403       .  A
C169        C170   1.399       .  A
C169        H174   1.084       .  S
C170        C661   1.472       .  S
C170        C171   1.401       .  A
C171        C172   1.407       .  A
C171        H175   1.084       .  S
C172        C618   1.489       .  S
C172        C173   1.403       .  A
C173        H176   1.083       .  S
O177       Ni183   1.927       .  S
O177        C198   1.271       .  A
O178       Ni201   1.891       .  S
O178        C187   1.265       .  A
O179       Ni183   1.906       .  S
O179       Ni201   1.903       .  S
O179       Ni195   1.914       .  S
O179        H202   0.966       .  S
C180        O197   1.276       .  A
C180        O189   1.277       .  A
C180        C588   1.485       .  S
O181       Ni200   1.943       .  S
O181        C187   1.274       .  A
O182       Ni200   1.909       .  S
O182        C184   1.267       .  A
Ni183       O186   1.944       .  S
Ni183       O188   1.897       .  S
C184        O194   1.278       .  A
C184        C781   1.519       .  S
O185       Ni201   1.904       .  S
O185        C191   1.270       .  A
O186        C191   1.278       .  A
C187        C631   1.480       .  S
O188        C190   1.261       .  A
O189       Ni200   1.926       .  S
C190        O196   1.281       .  A
C190        C598   1.518       .  S
C191        C608   1.486       .  S
H192        O193   0.966       .  S
O193       Ni201   1.906       .  S
O193       Ni195   1.900       .  S
O193       Ni200   1.913       .  S
O194       Ni195   1.952       .  S
Ni195       O199   1.902       .  S
Ni195       O197   1.921       .  S
O196       Ni201   1.971       .  S
C198        O199   1.269       .  A
C198        C578   1.472       .  S
C203        C568   1.473       .  S
C203        C204   1.399       .  A
C203        C208   1.402       .  A
C204        C205   1.402       .  A
C204        H209   1.084       .  S
C205        C818   1.483       .  S
C205        C206   1.404       .  A
C206        C207   1.403       .  A
C206        H210   1.084       .  S
C207        C591   1.478       .  S
C207        C208   1.401       .  A
C208        H211   1.084       .  S
C212        C558   1.494       .  S
C212        C213   1.409       .  A
C212        C217   1.406       .  A
C213        C214   1.411       .  A
C213        H218   1.082       .  S
C214        C651   1.491       .  S
C214        C215   1.409       .  A
C215        C216   1.399       .  A
C215        H219   1.084       .  S
C216        C611   1.484       .  S
C216        C217   1.396       .  A
C217        H220   1.085       .  S
O221       Ni227   1.928       .  S
O221        C242   1.269       .  A
O222       Ni245   1.897       .  S
O222        C231   1.266       .  A
O223       Ni227   1.919       .  S
O223       Ni245   1.898       .  S
O223       Ni239   1.911       .  S
O223        H246   0.966       .  S
C224        O241   1.272       .  A
C224        O233   1.277       .  A
C224        C531   1.477       .  S
O225       Ni244   1.925       .  S
O225        C231   1.270       .  A
O226       Ni244   1.896       .  S
O226        C228   1.261       .  A
Ni227       O230   1.923       .  S
Ni227       O232   1.906       .  S
C228        O238   1.278       .  A
C228        C521   1.503       .  S
O229       Ni245   1.919       .  S
O229        C235   1.275       .  A
O230        C235   1.275       .  A
C231        C551   1.466       .  S
O232        C234   1.266       .  A
O233       Ni244   1.941       .  S
C234        O240   1.272       .  A
C234        C761   1.502       .  S
C235        C541   1.484       .  S
H236        O237   0.966       .  S
O237       Ni245   1.910       .  S
O237       Ni239   1.903       .  S
O237       Ni244   1.903       .  S
O238       Ni239   1.959       .  S
Ni239       O243   1.899       .  S
Ni239       O241   1.904       .  S
O240       Ni245   1.930       .  S
C242        O243   1.266       .  A
C242        C848   1.467       .  S
C247        C508   1.495       .  S
C247        C248   1.404       .  A
C247        C252   1.409       .  A
C248        C249   1.407       .  A
C248        H253   1.082       .  S
C249        C791   1.488       .  S
C249        C250   1.403       .  A
C250        C251   1.400       .  A
C250        H254   1.084       .  S
C251        C538   1.482       .  S
C251        C252   1.400       .  A
C252        H255   1.084       .  S
C256        C498   1.495       .  S
C256        C257   1.409       .  A
C256        C261   1.408       .  A
C257        C258   1.409       .  A
C257        H262   1.083       .  S
C258        C911   1.490       .  S
C258        C259   1.408       .  A
C259        C260   1.399       .  A
C259        H263   1.084       .  S
C260        C528   1.483       .  S
C260        C261   1.398       .  A
C261        H264   1.084       .  S
O265       Ni271   1.934       .  S
O265        C286   1.271       .  A
O266       Ni289   1.886       .  S
O266        C275   1.264       .  A
O267       Ni271   1.930       .  S
O267       Ni289   1.910       .  S
O267       Ni283   1.921       .  S
O267        H290   0.966       .  S
C268        O285   1.270       .  A
C268        O277   1.275       .  A
C268        C478   1.496       .  S
O269       Ni288   1.928       .  S
O269        C275   1.269       .  A
O270       Ni288   1.905       .  S
O270        C272   1.267       .  A
Ni271       O274   1.939       .  S
Ni271       O276   1.907       .  S
C272        O282   1.277       .  A
C272        C681   1.484       .  S
O273       Ni289   1.915       .  S
O273        C279   1.269       .  A
O274        C279   1.275       .  A
C275        C841   1.471       .  S
O276        C278   1.269       .  A
O277       Ni288   1.930       .  S
C278        O284   1.279       .  A
C278        C561   1.481       .  S
C279        C491   1.495       .  S
H280        O281   0.966       .  S
O281       Ni289   1.907       .  S
O281       Ni283   1.896       .  S
O281       Ni288   1.924       .  S
O282       Ni283   1.951       .  S
Ni283       O287   1.882       .  S
Ni283       O285   1.915       .  S
O284       Ni289   1.953       .  S
C286        O287   1.262       .  A
C286        C468   1.476       .  S
C291        C721   1.482       .  S
C291        C292   1.398       .  A
C291        C296   1.407       .  A
C292        C293   1.394       .  A
C292        H297   1.085       .  S
C293        C461   1.467       .  S
C293        C294   1.398       .  A
C294        C295   1.403       .  A
C294        H298   1.084       .  S
C295        C481   1.481       .  S
C295        C296   1.408       .  A
C296        H299   1.084       .  S
C300        C601   1.506       .  S
C300        C301   1.415       .  A
C300        C305   1.413       .  A
C301        C302   1.413       .  A
C301        H306   1.083       .  S
C302        C921   1.493       .  S
C302        C303   1.404       .  A
C303        C304   1.398       .  A
C303        H307   1.084       .  S
C304        C488   1.488       .  S
C304        C305   1.404       .  A
C305        H308   1.084       .  S
O309       Ni315   1.910       .  S
O309        C330   1.263       .  A
O310       Ni333   1.894       .  S
O310        C319   1.264       .  A
O311       Ni315   1.919       .  S
O311       Ni333   1.911       .  S
O311       Ni327   1.915       .  S
O311        H334   0.969       .  S
C312        O329   1.266       .  A
C312        O321   1.272       .  A
C312        C448   1.483       .  S
O313       Ni332   1.920       .  S
O313        C319   1.268       .  A
O314       Ni332   1.899       .  S
O314        C316   1.266       .  A
Ni315       O318   1.930       .  S
Ni315       O320   1.889       .  S
C316        O326   1.276       .  A
C316        C501   1.471       .  S
O317       Ni333   1.905       .  S
O317        C323   1.268       .  A
O318        C323   1.271       .  A
C319        C438   1.471       .  S
O320        C322   1.259       .  A
O321       Ni332   1.927       .  S
C322        O328   1.278       .  A
C322        C698   1.495       .  S
C323        C428   1.473       .  S
H324        O325   0.965       .  S
O325       Ni333   1.916       .  S
O325       Ni327   1.909       .  S
O325       Ni332   1.926       .  S
O326       Ni327   1.944       .  S
Ni327       O331   1.889       .  S
Ni327       O329   1.908       .  S
O328       Ni333   1.957       .  S
C330        O331   1.261       .  A
C330        C621   1.457       .  S
C335        C741   1.470       .  S
C335        C336   1.398       .  A
C335        C340   1.397       .  A
C336        C337   1.401       .  A
C336        H341   1.084       .  S
C337        C431   1.471       .  S
C337        C338   1.402       .  A
C338        C339   1.404       .  A
C338        H342   1.084       .  S
C339        C421   1.481       .  S
C339        C340   1.400       .  A
C340        H343   1.084       .  S
C344        C518   1.497       .  S
C344        C345   1.409       .  A
C344        C349   1.411       .  A
C345        C346   1.405       .  A
C345        H350   1.083       .  S
C346        C641   1.474       .  S
C346        C347   1.396       .  A
C347        C348   1.392       .  A
C347        H351   1.085       .  S
C348        C451   1.474       .  S
C348        C349   1.403       .  A
C349        H352   1.084       .  S
O353       Ni359   1.913       .  S
O353        C374   1.265   1_556  A
O354       Ni377   1.896       .  S
O354        C363   1.264       .  A
O355       Ni359   1.919       .  S
O355       Ni377   1.908       .  S
O355       Ni371   1.913   1_556  S
O355        H378   0.966       .  S
C356        O373   1.272       .  A
C356        O365   1.278       .  A
C356        C398   1.489       .  S
O357       Ni376   1.931       .  S
O357        C363   1.270   1_554  A
O358       Ni376   1.892       .  S
O358        C360   1.266       .  A
Ni359       O362   1.915       .  S
Ni359       O364   1.909       .  S
C360        O370   1.280       .  A
C360        C511   1.476       .  S
O361       Ni377   1.920       .  S
O361        C367   1.274       .  A
O362        C367   1.269       .  A
C363        C418   1.468       .  S
O364        C366   1.270       .  A
O365       Ni376   1.930       .  S
C366        O372   1.271       .  A
C366        C571   1.495       .  S
C367        C408   1.472       .  S
H368        O369   0.966       .  S
O369       Ni377   1.910   1_554  S
O369       Ni371   1.900       .  S
O369       Ni376   1.909       .  S
O370       Ni371   1.950       .  S
Ni371       O375   1.905       .  S
Ni371       O373   1.912       .  S
O372       Ni377   1.931       .  S
C374        O375   1.270       .  A
C374        C458   1.489       .  S
C379        C581   1.491       .  S
C379        C380   1.401       .  A
C379        C384   1.406       .  A
C380        C381   1.400       .  A
C380        H385   1.084       .  S
C381        C441   1.464       .  S
C381        C382   1.394       .  A
C382        C383   1.397       .  A
C382        H386   1.084       .  S
C383        C411   1.477       .  S
C383        C384   1.408       .  A
C384        H387   1.084       .  S
C388        C548   1.489       .  S
C388        C389   1.403       .  A
C388        C393   1.406       .  A
C389        C390   1.399       .  A
C389        H394   1.084       .  S
C390        C471   1.471       .  S
C390        C391   1.398       .  A
C391        C392   1.400       .  A
C391        H395   1.084       .  S
C392        C401   1.474       .  S
C392        C393   1.405       .  A
C393        H396   1.084       .  S
C397        C398   1.420       .  A
C397        C402   1.405       .  A
C397       Br404   1.927       .  S
C398        C399   1.415       .  A
C399        C400   1.410       .  A
C399       Br406   1.930       .  S
C400        C401   1.407       .  A
C400       Br405   1.929       .  S
C401        C402   1.403       .  A
C402       Br403   1.935       .  S
C407        C408   1.407       .  A
C407        C412   1.410       .  A
C407       Br414   1.928       .  S
C408        C409   1.407       .  A
C409        C410   1.398       .  A
C409       Br416   1.911       .  S
C410        C411   1.407       .  A
C410       Br415   1.937       .  S
C411        C412   1.414       .  A
C412       Br413   1.929       .  S
C417        C418   1.403       .  A
C417        C422   1.402       .  A
C417       Br424   1.928       .  S
C418        C419   1.410       .  A
C419        C420   1.406       .  A
C419       Br426   1.930       .  S
C420        C421   1.412       .  A
C420       Br425   1.932       .  S
C421        C422   1.416       .  A
C422       Br423   1.930       .  S
C427        C428   1.410       .  A
C427        C432   1.407       .  A
C427       Br434   1.929       .  S
C428        C429   1.410       .  A
C429        C430   1.404       .  A
C429       Br436   1.923       .  S
C430        C431   1.406       .  A
C430       Br435   1.933       .  S
C431        C432   1.408       .  A
C432       Br433   1.929       .  S
C437        C438   1.408       .  A
C437        C442   1.398       .  A
C437       Br444   1.923       .  S
C438        C439   1.417       .  A
C439        C440   1.405       .  A
C439       Br446   1.933       .  S
C440        C441   1.402       .  A
C440       Br445   1.929       .  S
C441        C442   1.405       .  A
C442       Br443   1.930       .  S
C447        C448   1.419       .  A
C447        C452   1.406       .  A
C447       Br454   1.928       .  S
C448        C449   1.412       .  A
C449        C450   1.408       .  A
C449       Br456   1.930       .  S
C450        C451   1.407       .  A
C450       Br455   1.929       .  S
C451        C452   1.404       .  A
C452       Br453   1.933       .  S
C457        C458   1.412       .  A
C457        C462   1.403       .  A
C457       Br464   1.932       .  S
C458        C459   1.426       .  A
C459        C460   1.405       .  A
C459       Br466   1.933   1_554  S
C460        C461   1.401       .  A
C460       Br465   1.935       .  S
C461        C462   1.406       .  A
C462       Br463   1.928       .  S
C467        C468   1.417       .  A
C467        C472   1.409       .  A
C467       Br474   1.931       .  S
C468        C469   1.411       .  A
C469        C470   1.400       .  A
C469       Br476   1.935       .  S
C470        C471   1.407       .  A
C470       Br475   1.929       .  S
C471        C472   1.405       .  A
C472       Br473   1.929       .  S
C477        C478   1.416       .  A
C477        C482   1.410       .  A
C477       Br484   1.932       .  S
C478        C479   1.420       .  A
C479        C480   1.407       .  A
C479       Br486   1.922       .  S
C480        C481   1.407       .  A
C480       Br485   1.937       .  S
C481        C482   1.408       .  A
C482       Br483   1.929       .  S
C487        C488   1.411       .  A
C487        C492   1.412       .  A
C487       Br494   1.926       .  S
C488        C489   1.406       .  A
C489        C490   1.410       .  A
C489       Br496   1.933       .  S
C490        C491   1.419       .  A
C490       Br495   1.922       .  S
C491        C492   1.412       .  A
C492       Br493   1.930       .  S
C497        C498   1.420       .  A
C497        C502   1.413       .  A
C497       Br504   1.924       .  S
C498        C499   1.415       .  A
C499        C500   1.397       .  A
C499       Br506   1.931       .  S
C500        C501   1.403       .  A
C500       Br505   1.922       .  S
C501        C502   1.405       .  A
C502       Br503   1.929       .  S
C507        C508   1.415       .  A
C507        C512   1.396       .  A
C507       Br514   1.937       .  S
C508        C509   1.421       .  A
C509        C510   1.416       .  A
C509       Br516   1.930       .  S
C510        C511   1.408       .  A
C510       Br515   1.927   1_554  S
C511        C512   1.407       .  A
C512       Br513   1.926       .  S
C517        C518   1.415       .  A
C517        C522   1.413       .  A
C517       Br524   1.931       .  S
C518        C519   1.411       .  A
C519        C520   1.408       .  A
C519       Br526   1.937       .  S
C520        C521   1.426       .  A
C520       Br525   1.940       .  S
C521        C522   1.415       .  A
C522       Br523   1.925       .  S
C527        C528   1.408       .  A
C527        C532   1.412       .  A
C527       Br534   1.927       .  S
C528        C529   1.412       .  A
C529        C530   1.404       .  A
C529       Br536   1.926       .  S
C530        C531   1.409       .  A
C530       Br535   1.935       .  S
C531        C532   1.412       .  A
C532       Br533   1.928       .  S
C537        C538   1.409       .  A
C537        C542   1.403       .  A
C537       Br544   1.937       .  S
C538        C539   1.410       .  A
C539        C540   1.413       .  A
C539       Br546   1.928       .  S
C540        C541   1.413       .  A
C540       Br545   1.928       .  S
C541        C542   1.414       .  A
C542       Br543   1.928       .  S
C547        C548   1.419       .  A
C547        C552   1.402       .  A
C547       Br554   1.925       .  S
C548        C549   1.415       .  A
C549        C550   1.407       .  A
C549       Br556   1.932       .  S
C550        C551   1.408       .  A
C550       Br555   1.933       .  S
C551        C552   1.400       .  A
C552       Br553   1.928       .  S
C557        C558   1.412       .  A
C557        C562   1.397       .  A
C557       Br564   1.938       .  S
C558        C559   1.419       .  A
C559        C560   1.418       .  A
C559       Br566   1.927       .  S
C560        C561   1.410       .  A
C560       Br565   1.927       .  S
C561        C562   1.405       .  A
C562       Br563   1.918       .  S
C567        C568   1.404       .  A
C567        C572   1.408       .  A
C567       Br574   1.928       .  S
C568        C569   1.406       .  A
C569        C570   1.404       .  A
C569       Br576   1.930       .  S
C570        C571   1.415       .  A
C570       Br575   1.929       .  S
C571        C572   1.414       .  A
C572       Br573   1.924   1_556  S
C577        C578   1.411       .  A
C577        C582   1.408       .  A
C577       Br584   1.932       .  S
C578        C579   1.401       .  A
C579        C580   1.403       .  A
C579       Br586   1.927       .  S
C580        C581   1.420       .  A
C580       Br585   1.927       .  S
C581        C582   1.414       .  A
C582       Br583   1.932       .  S
C587        C588   1.413       .  A
C587        C592   1.411       .  A
C587       Br594   1.929       .  S
C588        C589   1.416       .  A
C589        C590   1.406       .  A
C589       Br596   1.927       .  S
C590        C591   1.405       .  A
C590       Br595   1.934       .  S
C591        C592   1.409       .  A
C592       Br593   1.929       .  S
C597        C598   1.431       .  A
C597        C602   1.413       .  A
C597       Br604   1.940       .  S
C598        C599   1.417       .  A
C599        C600   1.417       .  A
C599       Br606   1.922       .  S
C600        C601   1.414       .  A
C600       Br605   1.927       .  S
C601        C602   1.411       .  A
C602       Br603   1.934       .  S
C607        C608   1.413       .  A
C607        C612   1.410       .  A
C607       Br614   1.931       .  S
C608        C609   1.415       .  A
C609        C610   1.408       .  A
C609       Br616   1.930       .  S
C610        C611   1.410       .  A
C610       Br615   1.933       .  S
C611        C612   1.410       .  A
C612       Br613   1.930       .  S
C617        C618   1.415       .  A
C617        C622   1.404       .  A
C617       Br624   1.933       .  S
C618        C619   1.422       .  A
C619        C620   1.404   1_565  A
C619       Br626   1.920       .  S
C620        C621   1.397       .  A
C620       Br625   1.934       .  S
C621        C622   1.405   1_545  A
C622       Br623   1.933   1_565  S
C627        C628   1.403       .  A
C627        C632   1.394   1_455  A
C627       Br634   1.926       .  S
C628        C629   1.405       .  A
C629        C630   1.410   1_455  A
C629       Br636   1.928       .  S
C630        C631   1.417       .  A
C630       Br635   1.922       .  S
C631        C632   1.408       .  A
C632       Br633   1.921       .  S
C637        C638   1.428       .  A
C637        C642   1.407   1_565  A
C637       Br644   1.924       .  S
C638        C639   1.433   1_565  A
C639        C640   1.411       .  A
C639       Br646   1.937       .  S
C640        C641   1.400       .  A
C640       Br645   1.935       .  S
C641        C642   1.401       .  A
C642       Br643   1.938       .  S
C647        C648   1.423   1_655  A
C647        C652   1.408       .  A
C647       Br654   1.934   1_655  S
C648        C649   1.416       .  A
C649        C650   1.413   1_455  A
C649       Br656   1.923       .  S
C650        C651   1.412       .  A
C650       Br655   1.929       .  S
C651        C652   1.409       .  A
C652       Br653   1.937       .  S
C657        C658   1.410       .  A
C657        C662   1.408       .  A
C657       Br664   1.929       .  S
C658        C659   1.412       .  A
C659        C660   1.402       .  A
C659       Br666   1.929       .  S
C660        C661   1.406       .  A
C660       Br665   1.931       .  S
C661        C662   1.408       .  A
C662       Br663   1.929       .  S
C667        C668   1.409       .  A
C667        C672   1.406       .  A
C667       Br674   1.930       .  S
C668        C669   1.407       .  A
C669        C670   1.415       .  A
C669       Br676   1.931       .  S
C670        C671   1.422       .  A
C670       Br675   1.926       .  S
C671        C672   1.419       .  A
C672       Br673   1.934       .  S
C677        C678   1.420       .  A
C677        C682   1.419       .  A
C677       Br684   1.928       .  S
C678        C679   1.415       .  A
C679        C680   1.402       .  A
C679       Br686   1.923       .  S
C680        C681   1.405       .  A
C680       Br685   1.923       .  S
C681        C682   1.409       .  A
C682       Br683   1.927       .  S
C687        C688   1.405       .  A
C687        C692   1.411       .  A
C687       Br694   1.933       .  S
C688        C689   1.407       .  A
C689        C690   1.410       .  A
C689       Br696   1.929       .  S
C690        C691   1.415       .  A
C690       Br695   1.929       .  S
C691        C692   1.424       .  A
C692       Br693   1.935       .  S
C697        C698   1.416       .  A
C697        C702   1.409       .  A
C697       Br704   1.927       .  S
C698        C699   1.426       .  A
C699        C700   1.402       .  A
C699       Br706   1.941       .  S
C700        C701   1.408       .  A
C700       Br705   1.940       .  S
C701        C702   1.411       .  A
C702       Br703   1.931       .  S
C707        C708   1.418       .  A
C707        C712   1.411       .  A
C707       Br714   1.918       .  S
C708        C709   1.418       .  A
C709        C710   1.418       .  A
C709       Br716   1.924   1_554  S
C710        C711   1.408       .  A
C710       Br715   1.927       .  S
C711        C712   1.408       .  A
C712       Br713   1.933       .  S
C717        C718   1.412       .  A
C717        C722   1.407       .  A
C717       Br724   1.930       .  S
C718        C719   1.410       .  A
C719        C720   1.402       .  A
C719       Br726   1.933       .  S
C720        C721   1.412       .  A
C720       Br725   1.931       .  S
C721        C722   1.411       .  A
C722       Br723   1.929       .  S
C727        C728   1.408       .  A
C727        C732   1.417   1_565  A
C727       Br734   1.928   1_565  S
C728        C729   1.401       .  A
C729        C730   1.396       .  A
C729       Br736   1.924       .  S
C730        C731   1.418       .  A
C730       Br735   1.932       .  S
C731        C732   1.424   1_565  A
C732       Br733   1.932       .  S
C737        C738   1.420       .  A
C737        C742   1.402       .  A
C737       Br744   1.924       .  S
C738        C739   1.432       .  A
C739        C740   1.410       .  A
C739       Br746   1.935   1_556  S
C740        C741   1.399       .  A
C740       Br745   1.934       .  S
C741        C742   1.401       .  A
C742       Br743   1.935       .  S
C747        C748   1.407       .  A
C747        C752   1.402       .  A
C747       Br754   1.934       .  S
C748        C749   1.407       .  A
C749        C750   1.408       .  A
C749       Br756   1.929   1_545  S
C750        C751   1.413       .  A
C750       Br755   1.929   1_545  S
C751        C752   1.411       .  A
C752       Br753   1.928       .  S
C757        C758   1.403       .  A
C757        C762   1.403       .  A
C757       Br764   1.929       .  S
C758        C759   1.404       .  A
C759        C760   1.410       .  A
C759       Br766   1.933       .  S
C760        C761   1.426       .  A
C760       Br765   1.932       .  S
C761        C762   1.420       .  A
C762       Br763   1.926       .  S
C767        C768   1.414       .  A
C767        C772   1.406       .  A
C767       Br774   1.932       .  S
C768        C769   1.415       .  A
C769        C770   1.404       .  A
C769       Br776   1.923       .  S
C770        C771   1.406       .  A
C770       Br775   1.934       .  S
C771        C772   1.408       .  A
C772       Br773   1.928       .  S
C777        C778   1.409       .  A
C777        C782   1.416       .  A
C777       Br784   1.934       .  S
C778        C779   1.407       .  A
C779        C780   1.410       .  A
C779       Br786   1.939       .  S
C780        C781   1.430       .  A
C780       Br785   1.933       .  S
C781        C782   1.425       .  A
C782       Br783   1.922       .  S
C787        C788   1.410       .  A
C787        C792   1.406       .  A
C787       Br794   1.919       .  S
C788        C789   1.410       .  A
C789        C790   1.405       .  A
C789       Br796   1.924       .  S
C790        C791   1.414       .  A
C790       Br795   1.933       .  S
C791        C792   1.414       .  A
C792       Br793   1.935       .  S
C797        C798   1.416       .  A
C797        C802   1.407       .  A
C797       Br804   1.932   1_455  S
C798        C799   1.419       .  A
C799        C800   1.407       .  A
C799       Br806   1.933       .  S
C800        C801   1.404       .  A
C800       Br805   1.932       .  S
C801        C802   1.406       .  A
C802       Br803   1.931   1_455  S
C807        C808   1.408       .  A
C807        C812   1.418       .  A
C807       Br814   1.931       .  S
C808        C809   1.408       .  A
C809        C810   1.415       .  A
C809       Br816   1.932       .  S
C810        C811   1.430       .  A
C810       Br815   1.935       .  S
C811        C812   1.423       .  A
C812       Br813   1.916       .  S
C817        C818   1.412       .  A
C817        C822   1.406       .  A
C817       Br824   1.933       .  S
C818        C819   1.415       .  A
C819        C820   1.403       .  A
C819       Br826   1.926       .  S
C820        C821   1.406       .  A
C820       Br825   1.932       .  S
C821        C822   1.410       .  A
C822       Br823   1.929       .  S
C827        C828   1.409       .  A
C827        C832   1.414       .  A
C827       Br834   1.933   1_655  S
C828        C829   1.411       .  A
C829        C830   1.411       .  A
C829       Br836   1.938       .  S
C830        C831   1.427       .  A
C830       Br835   1.937       .  S
C831        C832   1.426       .  A
C832       Br833   1.936   1_655  S
C837        C838   1.407       .  A
C837        C842   1.397   1_545  A
C837       Br844   1.924       .  S
C838        C839   1.406       .  A
C839        C840   1.408       .  A
C839       Br846   1.929       .  S
C840        C841   1.416   1_545  A
C840       Br845   1.932       .  S
C841        C842   1.407       .  A
C842       Br843   1.935       .  S
C847        C848   1.408   1_655  A
C847        C852   1.406       .  A
C847       Br854   1.928   1_655  S
C848        C849   1.402       .  A
C849        C850   1.400   1_455  A
C849       Br856   1.928       .  S
C850        C851   1.415       .  A
C850       Br855   1.923       .  S
C851        C852   1.413       .  A
C852       Br853   1.931       .  S
C857        C858   1.410       .  A
C857        C862   1.415       .  A
C857       Br864   1.939       .  S
C858        C859   1.412       .  A
C859        C860   1.421       .  A
C859       Br866   1.929       .  S
C860        C861   1.423       .  A
C860       Br865   1.924   1_556  S
C861        C862   1.432       .  A
C862       Br863   1.938       .  S
C867        C868   1.407       .  A
C867        C872   1.417       .  A
C867       Br874   1.933       .  S
C868        C869   1.407       .  A
C869        C870   1.418       .  A
C869       Br876   1.932       .  S
C870        C871   1.425       .  A
C870       Br875   1.924       .  S
C871        C872   1.426       .  A
C872       Br873   1.924       .  S
C877        C878   1.422       .  A
C877        C882   1.425       .  A
C877       Br884   1.926       .  S
C878        C879   1.408       .  A
C879        C880   1.396       .  A
C879       Br886   1.936       .  S
C880        C881   1.409       .  A
C880       Br885   1.912       .  S
C881        C882   1.413       .  A
C882       Br883   1.926       .  S
C887        C888   1.417       .  A
C887        C892   1.410       .  A
C887       Br894   1.932       .  S
C888        C889   1.418       .  A
C889        C890   1.393       .  A
C889       Br896   1.935       .  S
C890        C891   1.400       .  A
C890       Br895   1.924       .  S
C891        C892   1.412       .  A
C892       Br893   1.931       .  S
C897        C898   1.413       .  A
C897        C902   1.412       .  A
C897       Br904   1.930       .  S
C898        C899   1.424       .  A
C899        C900   1.409       .  A
C899       Br906   1.939       .  S
C900        C901   1.406       .  A
C900       Br905   1.933       .  S
C901        C902   1.411       .  A
C902       Br903   1.929       .  S
C907        C908   1.419   1_455  A
C907        C912   1.413       .  A
C907       Br914   1.933       .  S
C908        C909   1.416       .  A
C909        C910   1.401   1_655  A
C909       Br916   1.917       .  S
C910        C911   1.406       .  A
C910       Br915   1.929       .  S
C911        C912   1.412       .  A
C912       Br913   1.927       .  S
C917        C918   1.421       .  A
C917        C922   1.411   1_545  A
C917       Br924   1.935       .  S
C918        C919   1.423       .  A
C919        C920   1.416   1_545  A
C919       Br926   1.933       .  S
C920        C921   1.410       .  A
C920       Br925   1.929       .  S
C921        C922   1.408       .  A
C922       Br923   1.933       .  S
C927        C928   1.411       .  A
C927        C932   1.409       .  A
C927       Br934   1.929       .  S
C928        C929   1.412       .  A
C929        C930   1.401       .  A
C929       Br936   1.923       .  S
C930        C931   1.405       .  A
C930       Br935   1.933       .  S
C931        C932   1.409       .  A
C932       Br933   1.928       .  S
