geometry optimzed in LAMMPS
_audit_creation_date              2020-11-30 
_audit_creation_method            'lammps2cif' 
_symmetry_space_group_name_H-M    'P1' 
_symmetry_Int_Tables_number       1 
_symmetry_cell_setting            triclinic 
loop_ 
_symmetry_equiv_pos_as_xyz 
  x,y,z 
_cell_length_a                    32.372785512503455 
_cell_length_b                    32.4090043939254 
_cell_length_c                    32.39818652930231 
_cell_angle_alpha                 90.00902326348886 
_cell_angle_beta                  90.03156876885839 
_cell_angle_gamma                 90.04527962993556 
loop_ 
_atom_site_label 
_atom_site_type_symbol 
_atom_site_fract_x 
_atom_site_fract_y 
_atom_site_fract_z 
_atom_site_charge 
C1          C  0.16857493  0.87498562  0.96034952     0.03330
C2          C  0.16894320  0.85384994  0.99756384    -0.12820
C3          C  0.17255026  0.87467015  0.03469352     0.00830
C4          C  0.17501195  0.91794198  0.03517415    -0.11340
C5          C  0.17270176  0.94124742  0.99792913     0.03320
C6          C  0.17005810  0.91844003  0.96029447    -0.10760
H7          H  0.16863075  0.82034144  0.99759650     0.08920
H8          H  0.17893070  0.93229000  0.06489310     0.06450
H9          H  0.16895545  0.93335863  0.93062237     0.06290
C10         C  0.68254059  0.05340151  0.96061469     0.03330
C11         C  0.68248275  0.07414456  0.99800836    -0.12820
C12         C  0.67933487  0.05315385  0.03513435     0.00830
C13         C  0.67600114  0.00981829  0.03504548    -0.11340
C14         C  0.67756472  0.98691132  0.99742234     0.03320
C15         C  0.68054572  0.01001940  0.96006261    -0.10760
H16         H  0.68298409  0.10764864  0.99815093     0.08920
H17         H  0.67216635  0.99498588  0.06454456     0.06450
H18         H  0.68172173  0.99530599  0.93026694     0.06290
C19         C  0.96251123  0.72195190  0.08972952     0.03330
C20         C  0.92523321  0.72056773  0.11057806    -0.12820
C21         C  0.88826604  0.71617806  0.08955528     0.00830
C22         C  0.88815142  0.71340692  0.04621675    -0.11340
C23         C  0.92558486  0.71672507  0.02322313     0.03320
C24         C  0.96298991  0.72033339  0.04630608    -0.10760
H25         H  0.92509596  0.72073736  0.14410368     0.08920
H26         H  0.85870441  0.70854518  0.03146943     0.06450
H27         H  0.99275250  0.72226067  0.03156498     0.06290
C28         C  0.88961837  0.20747964  0.91078155     0.03330
C29         C  0.92668249  0.20718238  0.88941768    -0.12820
C30         C  0.96407419  0.21055416  0.90996287     0.00830
C31         C  0.96477180  0.21382395  0.95326866    -0.11340
C32         C  0.92754442  0.21210526  0.97675023     0.03320
C33         C  0.88977774  0.20963813  0.95414531    -0.10760
H34         H  0.92636556  0.20677401  0.85590309     0.08920
H35         H  0.99453943  0.21791751  0.96758193     0.06450
H36         H  0.86011170  0.20915242  0.96915236     0.06290
C37         C  0.67354992  0.87357876  0.95973229     0.03330
C38         C  0.67230141  0.91697547  0.95970457    -0.12820
C39         C  0.67655100  0.93980303  0.99714723     0.00830
C40         C  0.68007647  0.91656228  0.03436438    -0.11340
C41         C  0.68031997  0.87314724  0.03380309     0.03320
C42         C  0.67788323  0.85232194  0.99654786    -0.10760
H43         H  0.66758019  0.93189171  0.93035750     0.08920
H44         H  0.68294784  0.93114644  0.06410566     0.06450
H45         H  0.67757585  0.81880808  0.99631338     0.06290
C46         C  0.17285734  0.05514265  0.96193705     0.03330
C47         C  0.17433579  0.01179199  0.96115644    -0.12820
C48         C  0.17293921  0.98838065  0.99841615     0.00830
C49         C  0.17201491  0.01111167  0.03617781    -0.11340
C50         C  0.17152546  0.05449059  0.03619812     0.03320
C51         C  0.17088099  0.07585272  0.99923755    -0.10760
H52         H  0.17718369  0.99745137  0.93130640     0.08920
H53         H  0.17198686  0.99626579  0.06589845     0.06450
H54         H  0.17115819  0.10937381  0.99954959     0.06290
C55         C  0.88857678  0.72256250  0.90965885     0.03330
C56         C  0.92593270  0.72216691  0.88878140    -0.12820
C57         C  0.96300334  0.71798442  0.90979195     0.00830
C58         C  0.96304369  0.71450565  0.95308664    -0.11340
C59         C  0.92559077  0.71706644  0.97609988     0.03320
C60         C  0.88816543  0.72040599  0.95306109    -0.10760
H61         H  0.92605663  0.72261188  0.85526938     0.08920
H62         H  0.99248925  0.70960520  0.96781288     0.06450
H63         H  0.85838349  0.72159988  0.96783305     0.06290
C64         C  0.89132422  0.21201595  0.09052005     0.03330
C65         C  0.89081267  0.21499617  0.04723776    -0.12820
C66         C  0.92805261  0.21237940  0.02387584     0.00830
C67         C  0.96569895  0.20937469  0.04662450    -0.11340
C68         C  0.96557494  0.20749199  0.09003780     0.03320
C69         C  0.92845806  0.20788061  0.11124239    -0.10760
H70         H  0.86112976  0.21942746  0.03288879     0.08920
H71         H  0.99538590  0.20819176  0.03167873     0.06450
H72         H  0.92856501  0.20712561  0.14476387     0.06290
C73         C  0.83679959  0.92567617  0.25282202     0.03330
C74         C  0.81526979  0.96229760  0.24874899    -0.12820
C75         C  0.83571985  0.99977019  0.24714891     0.00830
C76         C  0.87918825  0.00087738  0.24799395    -0.11340
C77         C  0.90277758  0.96384681  0.25115972     0.03320
C78         C  0.88022140  0.92612401  0.25483454    -0.10760
H79         H  0.78171370  0.96171632  0.24862084     0.08920
H80         H  0.89358032  0.03078349  0.24575106     0.06450
H81         H  0.89534952  0.89687161  0.25933781     0.06290
C82         C  0.01548960  0.92616159  0.75649706     0.03330
C83         C  0.97204944  0.92602960  0.75553711    -0.12820
C84         C  0.94916348  0.96356346  0.75341422     0.00830
C85         C  0.97249002  0.00089094  0.75079477    -0.11340
C86         C  0.01592985  0.00040876  0.75207162     0.03320
C87         C  0.03677870  0.96327488  0.75551225    -0.10760
H88         H  0.95722815  0.89629985  0.75656928     0.08920
H89         H  0.95803059  0.03058499  0.74722754     0.06450
H90         H  0.07032675  0.96316534  0.75524713     0.06290
C91         C  0.83574048  0.00117221  0.75734171     0.03330
C92         C  0.87911508  0.00130571  0.75528982    -0.12820
C93         C  0.90194602  0.96372031  0.75406098     0.00830
C94         C  0.87857301  0.92633032  0.75361534    -0.11340
C95         C  0.83517119  0.92674970  0.75669619     0.03320
C96         C  0.81446702  0.96411667  0.75879715    -0.10760
H97         H  0.89392010  0.03105623  0.75467241     0.08920
H98         H  0.89298568  0.89654493  0.75069716     0.06450
H99         H  0.78092917  0.96444480  0.75910441     0.06290
C100        C  0.01609988  0.00244743  0.24748100     0.03330
C101        C  0.97277441  0.00219226  0.25171685    -0.12820
C102        C  0.94994230  0.96450443  0.24982925     0.00830
C103        C  0.97320811  0.92734115  0.24618083    -0.11340
C104        C  0.01654659  0.92811748  0.24322838     0.03320
C105        C  0.03721919  0.96553535  0.24318004    -0.10760
H106        H  0.95789401  0.03151044  0.25668873     0.08920
H107        H  0.95867990  0.89744067  0.24538059     0.06450
H108        H  0.07075125  0.96583621  0.24227144     0.06290
C109        C  0.46401214  0.37534280  0.25221135     0.03330
C110        C  0.42702192  0.35389507  0.25030271    -0.12820
C111        C  0.38981788  0.37428009  0.24536574     0.00830
C112        C  0.38905894  0.41754773  0.24215223    -0.11340
C113        C  0.42608154  0.44112945  0.24584219     0.03320
C114        C  0.46377806  0.41877493  0.25051845    -0.10760
H115        H  0.42724335  0.32038713  0.25105087     0.08920
H116        H  0.35950333  0.43186738  0.23671010     0.06450
H117        H  0.49315572  0.43417453  0.25345002     0.06290
Fe118      Fe  0.63351557  0.17151559  0.24899097     1.65780
Fe119      Fe  0.67607079  0.25484089  0.20744457     1.73250
Fe120      Fe  0.71763177  0.21241925  0.29055922     1.54410
O121        O  0.67132965  0.21890143  0.33481903    -0.81470
O122        O  0.73960560  0.25991398  0.20812039    -0.79780
O123        O  0.63464242  0.16550281  0.31243332    -0.83980
O124        O  0.67943629  0.12700356  0.24225155    -0.78830
O125        O  0.72429207  0.27568170  0.28969670    -0.80610
O126        O  0.68188773  0.20841102  0.16339527    -0.83350
C127        C  0.71052635  0.12389532  0.26625817     0.97410
C128        C  0.64082374  0.19418886  0.33836633     1.04850
O129        O  0.67577137  0.21294343  0.24901906    -1.12340
O130        O  0.61263323  0.25414538  0.20238100    -0.74770
O131        O  0.59014065  0.21859013  0.25597095    -0.78250
O132        O  0.71557082  0.14907811  0.29580964    -0.78940
C133        C  0.58790420  0.25009713  0.23245550     0.96320
O134        O  0.62798623  0.17290999  0.18553197    -0.76900
O135        O  0.67059336  0.29882574  0.25398030    -0.82090
C136        C  0.76499392  0.23059449  0.21346904     0.98940
C137        C  0.69569564  0.30179451  0.28419949     1.04860
O138        O  0.76155169  0.20602693  0.24406325    -0.77740
C139        C  0.65787576  0.17730125  0.16058810     1.03160
C140        C  0.38824031  0.37320873  0.73829121     0.03330
C141        C  0.42543331  0.35245285  0.73459905    -0.12820
C142        C  0.46265730  0.37360042  0.73396301     0.00830
C143        C  0.46268485  0.41706193  0.73532154    -0.11340
C144        C  0.42501515  0.43985019  0.73802310     0.03320
C145        C  0.38776490  0.41652388  0.74080719    -0.10760
H146        H  0.42547489  0.31894939  0.73493446     0.08920
H147        H  0.49238008  0.43202014  0.73414901     0.06450
H148        H  0.35815010  0.43098009  0.74531642     0.06290
C149        C  0.51783166  0.21515487  0.53821401     0.03330
C150        C  0.53884858  0.21350176  0.50108303    -0.12820
C151        C  0.51772767  0.21243167  0.46398036     0.00830
C152        C  0.47429358  0.21352780  0.46360920    -0.11340
C153        C  0.45130243  0.21654339  0.50110944     0.03320
C154        C  0.47445124  0.21718443  0.53862158    -0.10760
H155        H  0.57235947  0.21167448  0.50111411     0.08920
H156        H  0.45956117  0.21152481  0.43387312     0.06450
H157        H  0.45986977  0.21911758  0.56842753     0.06290
Fe158      Fe  0.71859150  0.21624276  0.70994001     1.65780
Fe159      Fe  0.63508421  0.17366261  0.75083111     1.73250
Fe160      Fe  0.67515639  0.25797876  0.79271935     1.54410
O161        O  0.73869259  0.26411798  0.79268030    -0.81470
O162        O  0.59086767  0.21970650  0.74276511    -0.79780
O163        O  0.76203007  0.21089280  0.75692916    -0.83980
O164        O  0.72264047  0.27977162  0.71062282    -0.78830
O165        O  0.68181743  0.21184256  0.83690209    -0.80610
O166        O  0.63757186  0.16711313  0.68759253    -0.83350
C167        C  0.69204310  0.30391433  0.71452079     0.97410
C168        C  0.76414938  0.23468359  0.78822485     1.04850
O169        O  0.67638170  0.21590892  0.75117889    -1.12340
O170        O  0.68189301  0.13038447  0.75851104    -0.74770
O171        O  0.71883377  0.15262405  0.70537872    -0.78250
O172        O  0.66847175  0.30139871  0.74592651    -0.78940
C173        C  0.71334117  0.12747431  0.73495486     0.96320
O174        O  0.67258066  0.22144706  0.66531347    -0.76900
O175        O  0.62864633  0.17581334  0.81410902    -0.82090
C176        C  0.58744611  0.25122180  0.76614953     0.98940
C177        C  0.65857573  0.18013721  0.83902716     1.04860
O178        O  0.61151978  0.25590741  0.79672618    -0.77740
C179        C  0.64243926  0.19632560  0.66203551     1.03160
C180        C  0.67852434  0.42512532  0.40894411     0.03330
C181        C  0.67367499  0.46174843  0.38761310    -0.12820
C182        C  0.66946255  0.49901085  0.40823036     0.00830
C183        C  0.66921405  0.49953014  0.45174997    -0.11340
C184        C  0.67412834  0.46242653  0.47495458     0.03320
C185        C  0.67959489  0.42515045  0.45226374    -0.10760
H186        H  0.67447864  0.46124227  0.35410352     0.08920
H187        H  0.66463883  0.52895088  0.46660433     0.06450
H188        H  0.68510947  0.39598891  0.46727232     0.06290
C189        C  0.38763207  0.55408315  0.25138896     0.03330
C190        C  0.38767968  0.51065477  0.24976640    -0.12820
C191        C  0.42535770  0.48817356  0.24559502     0.00830
C192        C  0.46243441  0.51165025  0.24187467    -0.11340
C193        C  0.46177832  0.55493574  0.24474034     0.03320
C194        C  0.42463104  0.57544968  0.24944804    -0.10760
H195        H  0.35820556  0.49536919  0.25231113     0.08920
H196        H  0.49197901  0.49724373  0.23663726     0.06450
H197        H  0.42442099  0.60896411  0.24988378     0.06290
Fe198      Fe  0.71734586  0.71103968  0.29189174     1.65780
Fe199      Fe  0.63485837  0.75541522  0.25055574     1.73250
Fe200      Fe  0.67559820  0.67228106  0.20690236     1.54420
O201        O  0.73887291  0.66514110  0.20925397    -0.81470
O202        O  0.58979550  0.70970476  0.25388378    -0.79780
O203        O  0.76178996  0.71804725  0.24586724    -0.83980
O204        O  0.72140820  0.64772526  0.28826183    -0.78830
O205        O  0.68377002  0.71951575  0.16407940    -0.80610
O206        O  0.63422968  0.75774052  0.31426739    -0.83350
C207        C  0.69061383  0.62392889  0.28387203     0.97410
C208        C  0.76450246  0.69427769  0.21455132     1.04850
O209        O  0.67598955  0.71317157  0.24965962    -1.12340
O210        O  0.68187140  0.79914479  0.24733730    -0.74770
O211        O  0.71764576  0.77426814  0.30010012    -0.78250
O212        O  0.66703066  0.62758236  0.25250755    -0.78940
C213        C  0.71237512  0.80119547  0.27218612     0.96320
O214        O  0.67037661  0.70370429  0.33511255    -0.76900
O215        O  0.63140606  0.75727951  0.18691988    -0.82090
C216        C  0.58661356  0.67971477  0.22862799     0.98940
C217        C  0.66066619  0.75133618  0.16146062     1.04860
O218        O  0.61241767  0.67509519  0.19961451    -0.77740
C219        C  0.63885729  0.72709197  0.33824324     1.03160
C220        C  0.51427035  0.70002366  0.46168298     0.03330
C221        C  0.47084377  0.70168641  0.46193422    -0.12820
C222        C  0.44833951  0.70367605  0.49974235     0.00830
C223        C  0.47193697  0.70474365  0.53697470    -0.11340
C224        C  0.51538130  0.70177238  0.53622115     0.03320
C225        C  0.53572980  0.69922318  0.49866996    -0.10760
H226        H  0.45564684  0.70113994  0.43235119     0.08920
H227        H  0.45752780  0.70817535  0.56675042     0.06450
H228        H  0.56927232  0.69896330  0.49814299     0.06290
C229        C  0.66692488  0.42541504  0.58815028     0.03330
C230        C  0.66906223  0.42507681  0.54479892    -0.12820
C231        C  0.67296499  0.46248142  0.52196156     0.00830
C232        C  0.67570480  0.49985743  0.54502417    -0.11340
C233        C  0.67188380  0.49970140  0.58831275     0.03320
C234        C  0.66718286  0.46266060  0.60913684    -0.10760
H235        H  0.66739841  0.39539735  0.52988363     0.08920
H236        H  0.68111281  0.52918945  0.53024894     0.06450
H237        H  0.66620468  0.46269973  0.64264860     0.06290
C238        C  0.46142923  0.55362019  0.73748594     0.03330
C239        C  0.46184730  0.51032006  0.74029530    -0.12820
C240        C  0.42455360  0.48700096  0.73787755     0.00830
C241        C  0.38687860  0.50978185  0.73505136    -0.11340
C242        C  0.38694732  0.55325771  0.73362795     0.03320
C243        C  0.42421897  0.57433563  0.73389259    -0.10760
H244        H  0.49150052  0.49588199  0.74456487     0.08920
H245        H  0.35720585  0.49478069  0.73372248     0.06450
H246        H  0.42422165  0.60784623  0.73376622     0.06290
Fe247      Fe  0.71875522  0.71136037  0.70713834     1.65780
Fe248      Fe  0.67424987  0.67140007  0.79012954     1.73250
Fe249      Fe  0.63436015  0.75448669  0.74579865     1.54410
O250        O  0.68118302  0.79809068  0.75292481    -0.81470
O251        O  0.61054705  0.67249321  0.79318230    -0.79780
O252        O  0.71804055  0.77468593  0.70050348    -0.83980
O253        O  0.67316703  0.70396946  0.66222407    -0.78830
O254        O  0.62645303  0.75472373  0.80905787    -0.80610
O255        O  0.66922084  0.62668738  0.74420014    -0.83350
C256        C  0.64201638  0.72778079  0.65853764     0.97410
C257        C  0.71290051  0.80033545  0.72962372     1.04850
O258        O  0.67583065  0.71244949  0.74782924    -1.12340
O259        O  0.73779878  0.66617078  0.79139640    -0.74770
O260        O  0.76154477  0.71860757  0.75464874    -0.78250
O261        O  0.63781602  0.75854666  0.68236688    -0.78940
C262        C  0.76337830  0.69545315  0.78647307     0.96320
O263        O  0.72407322  0.64795611  0.70962602    -0.76900
O264        O  0.67908658  0.71842842  0.83366403    -0.82090
C265        C  0.58628275  0.67746460  0.76279242     0.98940
C266        C  0.65455514  0.74913300  0.83576494     1.04860
O267        O  0.59015618  0.70840329  0.73876553    -0.77740
C268        C  0.69397812  0.62323515  0.71379229     1.03160
C269        C  0.33478742  0.70041162  0.53762750     0.03330
C270        C  0.37832134  0.70026599  0.53766376    -0.12820
C271        C  0.40115863  0.70469489  0.50022927     0.00830
C272        C  0.37788039  0.71028325  0.46323280    -0.11340
C273        C  0.33445221  0.70996516  0.46379325     0.03320
C274        C  0.31359103  0.70464511  0.50068671    -0.10760
H275        H  0.39336403  0.69653919  0.56710551     0.08920
H276        H  0.39246939  0.71581821  0.43386662     0.06450
H277        H  0.28006342  0.70582094  0.50083095     0.06290
C278        C  0.18570477  0.50131605  0.58863564     0.03330
C279        C  0.18154459  0.50174295  0.54544584    -0.12820
C280        C  0.18208457  0.46442699  0.52215975     0.00830
C281        C  0.18450905  0.42678508  0.54494182    -0.11340
C282        C  0.18762237  0.42687080  0.58830948     0.03320
C283        C  0.18920848  0.46408385  0.60932308    -0.10760
H284        H  0.17762263  0.53146321  0.53112874     0.08920
H285        H  0.18412706  0.39707148  0.53008031     0.06450
H286        H  0.19045688  0.46404183  0.64282117     0.06290
Fe287      Fe  0.21631821  0.75557923  0.74726631     1.65780
Fe288      Fe  0.13318238  0.71026724  0.70826028     1.73250
Fe289      Fe  0.17836493  0.67131165  0.79143219     1.54420
O290        O  0.24197128  0.67472664  0.79457915    -0.81470
O291        O  0.09004457  0.71588924  0.75541932    -0.79780
O292        O  0.26135200  0.71036204  0.73993799    -0.83980
O293        O  0.22314329  0.75591101  0.81068172    -0.78830
O294        O  0.18512779  0.62698336  0.74543970    -0.80610
O295        O  0.13190409  0.77374073  0.70189140    -0.83350
C296        C  0.19384713  0.75064267  0.83622333     0.97410
C297        C  0.26519192  0.67897315  0.76331255     1.04850
O298        O  0.17571865  0.71257581  0.74922722    -1.12340
O299        O  0.17917666  0.70401128  0.66362435    -0.74770
O300        O  0.21291433  0.75948605  0.68387096    -0.78250
O301        O  0.17153697  0.71821313  0.83472761    -0.78940
C302        C  0.20995246  0.72838248  0.66034264     0.96320
O303        O  0.16884152  0.79813972  0.75404038    -0.76900
O304        O  0.12980082  0.64686413  0.71096790    -0.82090
C305        C  0.08835527  0.69228879  0.78692370     0.98940
C306        C  0.16080720  0.62329641  0.71470297     1.04860
O307        O  0.11489977  0.66397573  0.79245806    -0.77740
C308        C  0.13710809  0.79979589  0.73072910     1.03160
C309        C  0.33769651  0.22215085  0.53836207     0.03330
C310        C  0.38096807  0.21780448  0.53855580    -0.12820
C311        C  0.40416621  0.21908060  0.50112833     0.00830
C312        C  0.38123221  0.22246947  0.46367137    -0.11340
C313        C  0.33792101  0.22608962  0.46396423     0.03320
C314        C  0.31693792  0.22680694  0.50121143    -0.10760
H315        H  0.39543012  0.21308438  0.56812198     0.08920
H316        H  0.39591439  0.22222916  0.43386469     0.06450
H317        H  0.28342105  0.22809257  0.50115430     0.06290
Fe318      Fe  0.13406597  0.21541830  0.70753958     1.65780
Fe319      Fe  0.17690170  0.25642424  0.79100736     1.73250
Fe320      Fe  0.21712694  0.17233619  0.74912224     1.54410
O321        O  0.17007827  0.12891270  0.75542771    -0.81470
O322        O  0.24033355  0.25387697  0.79665372    -0.79780
O323        O  0.13329170  0.15177159  0.70223801    -0.83980
O324        O  0.18052956  0.22090872  0.66355527    -0.78830
O325        O  0.22281658  0.17335334  0.81256943    -0.80610
O326        O  0.18455490  0.30003641  0.74452099    -0.83350
C327        C  0.21170281  0.19704948  0.66092933     0.97410
C328        C  0.13927114  0.12585937  0.73103108     1.04850
O329        O  0.17589072  0.21456306  0.74931594    -1.12340
O330        O  0.11357500  0.26346830  0.78978336    -0.74770
O331        O  0.08999432  0.21020011  0.75410742    -0.78250
O332        O  0.21589330  0.16699809  0.68565415    -0.78940
C333        C  0.08762123  0.23453896  0.78498187     0.96320
O334        O  0.13055935  0.27908148  0.70837081    -0.76900
O335        O  0.16962264  0.21021797  0.83502445    -0.82090
C336        C  0.26531430  0.24884464  0.76695973     0.98940
C337        C  0.19393016  0.17942623  0.83831024     1.04860
O338        O  0.26175498  0.21809785  0.74265383    -0.77740
C339        C  0.16111886  0.30323421  0.71303558     1.03160
C340        C  0.18224770  0.50235487  0.40874469     0.03330
C341        C  0.18218760  0.50245952  0.45218141    -0.12820
C342        C  0.18030877  0.46483981  0.47505739     0.00830
C343        C  0.17719895  0.42759809  0.45181750    -0.11340
C344        C  0.17806086  0.42817461  0.40845192     0.03320
C345        C  0.18093344  0.46528218  0.38754827    -0.10760
H346        H  0.18391688  0.53215956  0.46697732     0.08920
H347        H  0.17391813  0.39787665  0.46631299     0.06450
H348        H  0.18037614  0.46536547  0.35402328     0.06290
Fe349      Fe  0.21797790  0.75695770  0.24993200     1.65780
Fe350      Fe  0.17586505  0.67411344  0.20722429     1.73250
Fe351      Fe  0.13424874  0.71455697  0.29113622     1.54420
O352        O  0.18065609  0.70778535  0.33507264    -0.81470
O353        O  0.11251310  0.66791873  0.20910084    -0.79780
O354        O  0.21761357  0.76145665  0.31362238    -0.83980
O355        O  0.17154317  0.80113456  0.24451276    -0.78830
O356        O  0.12925932  0.65115454  0.28906613    -0.80610
O357        O  0.16886339  0.72102316  0.16393201    -0.83350
C358        C  0.14023547  0.80343746  0.26832525     0.97410
C359        C  0.21129826  0.73222425  0.33890652     1.04850
O360        O  0.17600525  0.71535022  0.24943566    -1.12340
O361        O  0.23904905  0.67621439  0.20084388    -0.74770
O362        O  0.26196547  0.71009364  0.25529191    -0.78250
O363        O  0.13539406  0.77781160  0.29748607    -0.78940
C364        C  0.26431158  0.67956150  0.23050267     0.96320
O365        O  0.22266545  0.75712762  0.18626586    -0.76900
O366        O  0.18326060  0.62984999  0.25327227    -0.82090
C367        C  0.08715195  0.69732515  0.21373556     0.98940
C368        C  0.15950510  0.62669605  0.28452759     1.04860
O369        O  0.09003328  0.72140951  0.24477130    -0.77740
C370        C  0.19312459  0.75195808  0.16095590     1.03160
Fe371      Fe  0.21909226  0.17220172  0.25019846     1.65780
Fe372      Fe  0.13614577  0.21418323  0.29297333     1.73250
Fe373      Fe  0.17615434  0.25489121  0.20826101     1.54410
O374        O  0.23940932  0.25406298  0.20057953    -0.81470
O375        O  0.09161077  0.20605703  0.24706682    -0.79780
O376        O  0.26356097  0.21857803  0.25388378    -0.83980
O377        O  0.22275301  0.17155091  0.18660157    -0.78830
O378        O  0.18337721  0.29943010  0.25416772    -0.80610
O379        O  0.13816607  0.15102583  0.30024757    -0.83350
C380        C  0.19333112  0.17733696  0.16136251     0.97410
C381        C  0.26622960  0.24864175  0.22858582     1.04850
O382        O  0.17735526  0.21381921  0.25053767    -1.12340
O383        O  0.18342520  0.22213673  0.33597593    -0.74770
O384        O  0.21980183  0.16871533  0.31382343    -0.78250
O385        O  0.16885753  0.20796215  0.16493307    -0.78940
C386        C  0.21493176  0.19859083  0.33868934     0.96320
O387        O  0.17240547  0.12796157  0.24603704    -0.76900
O388        O  0.12973345  0.27747021  0.29047045    -0.82090
C389        C  0.08848243  0.22974477  0.21575935     0.98940
C390        C  0.15901993  0.30288561  0.28495087     1.04860
O391        O  0.11287616  0.26002636  0.21138808    -0.77740
C392        C  0.14204002  0.12538994  0.27099383     1.03160
C393        C  0.16690755  0.59559394  0.31735023    -0.05260
C394        C  0.13601389  0.58866116  0.34722477    -0.32690
C395        C  0.14232995  0.56124705  0.37992863     0.36560
C396        C  0.17997601  0.54008960  0.38340403    -0.05620
C397        C  0.21149245  0.54800172  0.35467564    -0.32590
C398        C  0.20527242  0.57549236  0.32188792     0.36460
H399        H  0.10636014  0.60395375  0.34489268     0.16830
O400        O  0.11032069  0.55277810  0.40633407    -0.60090
H401        H  0.24037287  0.53121852  0.35659822     0.16850
O402        O  0.23704322  0.58270909  0.29486766    -0.60190
H403        H  0.23524520  0.56026826  0.27413033     0.43840
H404        H  0.11396945  0.57216260  0.42973964     0.43800
C405        C  0.16454053  0.33551550  0.31633722    -0.05260
C406        C  0.12993411  0.34937813  0.33863084    -0.32690
C407        C  0.13437313  0.37711854  0.37137411     0.36560
C408        C  0.17386495  0.39100197  0.38277491    -0.05620
C409        C  0.20855911  0.37663778  0.36121651    -0.32590
C410        C  0.20412854  0.34915951  0.32815930     0.36460
H411        H  0.09919705  0.33905956  0.33028003     0.16830
O412        O  0.09978882  0.39261780  0.39025272    -0.60090
H413        H  0.23903591  0.38809888  0.36903564     0.16850
O414        O  0.23873754  0.33488558  0.30852177    -0.60190
H415        H  0.24535494  0.35608556  0.28746125     0.43840
H416        H  0.09536522  0.37478816  0.41472611     0.43800
C417        C  0.31168305  0.21825315  0.57563131    -0.05260
C418        C  0.28375432  0.25009221  0.58487943    -0.32690
C419        C  0.25054909  0.24349056  0.61172026     0.36560
C420        C  0.24490157  0.20450621  0.63021952    -0.05620
C421        C  0.27408810  0.17323910  0.62227659    -0.32590
C422        C  0.30714279  0.17986221  0.59521413     0.36460
H423        H  0.28660685  0.27968478  0.56955364     0.16830
O424        O  0.22428359  0.27558330  0.62003882    -0.60090
H425        H  0.27089286  0.14314096  0.63646669     0.16850
O426        O  0.33287141  0.14766328  0.58562435    -0.60190
H427        H  0.35540384  0.14899673  0.60632873     0.43840
H428        H  0.20396066  0.27556461  0.59712127     0.43800
C429        C  0.31231368  0.22284831  0.42635872    -0.05260
C430        C  0.30995535  0.18457963  0.40656058    -0.32690
C431        C  0.27808182  0.17602178  0.37868100     0.36560
C432        C  0.24761051  0.20616736  0.37001404    -0.05620
C433        C  0.25103014  0.24513225  0.38874913    -0.32590
C434        C  0.28286618  0.25344740  0.41693161     0.36460
H435        H  0.33150788  0.16029770  0.41462667     0.16830
O436        O  0.27593134  0.13726480  0.36176948    -0.60090
H437        H  0.22891120  0.26921076  0.38173645     0.16850
O438        O  0.28472831  0.29134406  0.43574536    -0.60190
H439        H  0.26260618  0.29102861  0.45691256     0.43840
H440        H  0.29605642  0.13743656  0.33869302     0.43800
C441        C  0.18232623  0.53854176  0.61460722    -0.05260
C442        C  0.21402894  0.54715086  0.64296773    -0.32690
C443        C  0.20739893  0.57385407  0.67624522     0.36560
C444        C  0.16855412  0.59278545  0.68147068    -0.05620
C445        C  0.13749659  0.58541664  0.65183980    -0.32540
C446        C  0.14415234  0.55858592  0.61872378     0.36460
H447        H  0.24342338  0.53136147  0.64043944     0.16830
O448        O  0.23921555  0.58135984  0.70313892    -0.60090
H449        H  0.10747909  0.59988625  0.65468318     0.16850
O450        O  0.11207588  0.54954944  0.59256002    -0.60190
H451        H  0.11392965  0.57035474  0.57019695     0.43840
H452        H  0.23833283  0.55834335  0.72328987     0.43800
C453        C  0.16945908  0.33411192  0.68011792    -0.05260
C454        C  0.14037990  0.33942519  0.64812381    -0.32690
C455        C  0.14778902  0.36667210  0.61544066     0.36560
C456        C  0.18479290  0.38926412  0.61406173    -0.05620
C457        C  0.21472898  0.38265326  0.64481779    -0.32590
C458        C  0.20727549  0.35565084  0.67772853     0.36460
H459        H  0.11124946  0.32297132  0.64870724     0.16830
O460        O  0.11721693  0.37356927  0.58694801    -0.60090
H461        H  0.24318905  0.40028942  0.64445433     0.16850
O462        O  0.23734067  0.35044085  0.70707842    -0.60190
H463        H  0.23320062  0.37325945  0.72704459     0.43840
H464        H  0.12187862  0.35273810  0.56502195     0.43800
C465        C  0.30863689  0.71714324  0.42702569    -0.05260
C466        C  0.28833470  0.75520487  0.42330110    -0.32690
C467        C  0.25542478  0.76002468  0.39575825     0.36560
C468        C  0.24193608  0.72633324  0.37188431    -0.05620
C469        C  0.26240391  0.68831230  0.37531859    -0.32590
C470        C  0.29580503  0.68369476  0.40246988     0.36460
H471        H  0.29698939  0.78074717  0.44310713     0.16830
O472        O  0.23607958  0.79756528  0.39292361    -0.60090
H473        H  0.25295312  0.66241590  0.35634125     0.16850
O474        O  0.31437829  0.64588486  0.40633085    -0.60190
H475        H  0.34032763  0.64805384  0.39023022     0.43840
H476        H  0.21245691  0.79590466  0.41233693     0.43800
C477        C  0.30947686  0.70216571  0.57553076    -0.05260
C478        C  0.30944123  0.73888143  0.59818398    -0.32690
C479        C  0.27721292  0.74796886  0.62545781     0.36560
C480        C  0.24389236  0.71998537  0.63052431    -0.05620
C481        C  0.24532351  0.68207206  0.60948312    -0.32590
C482        C  0.27758908  0.67322750  0.58199797     0.36460
H483        H  0.33311600  0.76190001  0.59268056     0.16830
O484        O  0.27793953  0.78517783  0.64562238    -0.60090
H485        H  0.22113774  0.65935756  0.61385051     0.16850
O486        O  0.27726610  0.63668761  0.56058430    -0.60190
H487        H  0.25583039  0.64003309  0.53895713     0.43840
H488        H  0.29561798  0.78063968  0.67022429     0.43800
C489        C  0.49865058  0.57960462  0.74159131    -0.05260
C490        C  0.50797024  0.60769533  0.70990647    -0.32690
C491        C  0.53533786  0.64047277  0.71657182     0.36560
C492        C  0.55437526  0.64539614  0.75542477    -0.05620
C493        C  0.54588135  0.61632792  0.78667949    -0.32590
C494        C  0.51803635  0.58395301  0.78009983     0.36460
H495        H  0.49248900  0.60516973  0.68033912     0.16830
O496        O  0.54394164  0.66676187  0.68456314    -0.60090
H497        H  0.56033437  0.61902352  0.81672493     0.16850
O498        O  0.50846857  0.55791960  0.81208926    -0.60190
H499        H  0.48484066  0.57109802  0.82642041     0.43840
H500        H  0.52149794  0.68756668  0.68496169     0.43800
C501        C  0.29528385  0.64558856  0.75379610    -0.05260
C502        C  0.29900511  0.61192280  0.78115172    -0.32690
C503        C  0.32556751  0.57892902  0.77264097     0.36560
C504        C  0.34924968  0.57900043  0.73634268    -0.05620
C505        C  0.34394567  0.61133046  0.70786652    -0.32590
C506        C  0.31755397  0.64448146  0.71637496     0.36460
H507        H  0.28175998  0.61132831  0.80978355     0.16830
O508        O  0.33075005  0.54856670  0.80165675    -0.60090
H509        H  0.36235547  0.61206907  0.67994101     0.16850
O510        O  0.31396805  0.67551069  0.68785463    -0.60190
H511        H  0.33683974  0.69490402  0.69411575     0.43840
H512        H  0.30964443  0.52742233  0.79490102     0.43800
C513        C  0.67585699  0.53686312  0.61431762    -0.05260
C514        C  0.64265371  0.54778123  0.63997347    -0.32690
C515        C  0.64826345  0.57471488  0.67329981     0.36560
C516        C  0.68761292  0.59160629  0.68129679    -0.05620
C517        C  0.72052618  0.58153221  0.65468479    -0.32590
C518        C  0.71496038  0.55408787  0.62177347     0.36460
H519        H  0.61257663  0.53387325  0.63514578     0.16830
O520        O  0.61480782  0.58518358  0.69700275    -0.60090
H521        H  0.75099708  0.59440030  0.65981108     0.16850
O522        O  0.74832664  0.54276403  0.59828276    -0.60190
H523        H  0.76031984  0.51846885  0.61252406     0.43840
H524        H  0.61221131  0.56277394  0.71768141     0.43800
C525        C  0.54195712  0.70484145  0.57331909    -0.05260
C526        C  0.57272876  0.67481847  0.57950736    -0.32690
C527        C  0.60602911  0.68202116  0.60617569     0.36560
C528        C  0.60883810  0.71968458  0.62779438    -0.05620
C529        C  0.57688530  0.74888535  0.62285891    -0.32590
C530        C  0.54377743  0.74169840  0.59598330     0.36460
H531        H  0.57198901  0.64641497  0.56185358     0.16830
O532        O  0.63531675  0.65186467  0.61099566    -0.60090
H533        H  0.57774679  0.77790379  0.63942766     0.16850
O534        O  0.51518814  0.77225537  0.58965614    -0.60190
H535        H  0.49392418  0.76789718  0.61124334     0.43840
H536        H  0.65526624  0.65625603  0.58819508     0.43800
C537        C  0.60580932  0.71863454  0.36896052    -0.05260
C538        C  0.57459632  0.74828688  0.37535601    -0.32690
C539        C  0.54181865  0.74081245  0.40249798     0.36560
C540        C  0.53957386  0.70318717  0.42386105    -0.05620
C541        C  0.56951361  0.67277984  0.41618848    -0.32590
C542        C  0.60245321  0.68023263  0.38920098     0.36460
H543        H  0.57592529  0.77789000  0.35989455     0.16830
O544        O  0.51414250  0.77179584  0.41057315    -0.60090
H545        H  0.56851130  0.64387730  0.43298629     0.16850
O546        O  0.63079038  0.64954123  0.38260351    -0.60190
H547        H  0.65100094  0.65216473  0.40547170     0.43840
H548        H  0.49139351  0.76763048  0.39048857     0.43800
C549        C  0.34983094  0.57949592  0.25044887    -0.05260
C550        C  0.32831001  0.58254189  0.21316426    -0.32690
C551        C  0.30146776  0.61552291  0.20582983     0.36560
C552        C  0.29512342  0.64612206  0.23648184    -0.05620
C553        C  0.31555310  0.64200260  0.27450495    -0.32590
C554        C  0.34284859  0.60916911  0.28148504     0.36460
H555        H  0.33452193  0.56081920  0.18849503     0.16830
O556        O  0.28246913  0.61792325  0.16804497    -0.60090
H557        H  0.31061086  0.66435022  0.29885485     0.16850
O558        O  0.36358689  0.60673872  0.31834994    -0.60190
H559        H  0.38539222  0.62820937  0.31694174     0.43840
H560        H  0.30130849  0.63468604  0.15067243     0.43800
C561        C  0.55398610  0.64808067  0.23315422    -0.05260
C562        C  0.54254117  0.62423189  0.19863837    -0.32690
C563        C  0.51474828  0.59138531  0.20252423     0.36560
C564        C  0.49877374  0.58114616  0.24147196    -0.05620
C565        C  0.51066344  0.60436406  0.27608433    -0.32590
C566        C  0.53786430  0.63770160  0.27217810     0.36460
H567        H  0.55475451  0.63142517  0.16834873     0.16830
O568        O  0.50206095  0.57055513  0.16789414    -0.60090
H569        H  0.49753364  0.59747453  0.30607263     0.16850
O570        O  0.54987685  0.65863242  0.30695263    -0.60190
H571        H  0.52792522  0.67939059  0.31183160     0.43840
H572        H  0.47773154  0.58605317  0.15761038     0.43800
C573        C  0.66896451  0.53657688  0.38221253    -0.05260
C574        C  0.64208142  0.53806032  0.34807245    -0.32690
C575        C  0.64865102  0.56585501  0.31560350     0.36560
C576        C  0.68248856  0.59316165  0.31696316    -0.05620
C577        C  0.70793635  0.59310863  0.35238750    -0.32590
C578        C  0.70151706  0.56509428  0.38459636     0.36460
H579        H  0.61722970  0.51578024  0.34545027     0.16830
O580        O  0.62302182  0.56457162  0.28192971    -0.60090
H581        H  0.73364899  0.61435447  0.35498085     0.16850
O582        O  0.72874086  0.56424797  0.41705546    -0.60190
H583        H  0.75111102  0.54525433  0.40834640     0.43840
H584        H  0.59682075  0.57726121  0.29130763     0.43800
C585        C  0.68382935  0.33388601  0.68083118    -0.05260
C586        C  0.71387246  0.33972326  0.64989765    -0.32690
C587        C  0.70684329  0.36637010  0.61669886     0.36560
C588        C  0.66930981  0.38785169  0.61379092    -0.05620
C589        C  0.63845037  0.38066564  0.64340494    -0.32590
C590        C  0.64541853  0.35402944  0.67672087     0.36460
H591        H  0.74347459  0.32427750  0.65181314     0.16830
O592        O  0.73822206  0.37398373  0.58929982    -0.60090
H593        H  0.60962574  0.39758600  0.64186305     0.16850
O594        O  0.61437587  0.34786574  0.70481646    -0.60190
H595        H  0.61680546  0.37099264  0.72472007     0.43840
H596        H  0.73415365  0.35372782  0.56671585     0.43800
C597        C  0.54328315  0.21116020  0.57561448    -0.05260
C598        C  0.55717256  0.17164939  0.58628813    -0.32690
C599        C  0.59062915  0.16655912  0.61300655     0.36560
C600        C  0.61078928  0.20136076  0.62970784    -0.05620
C601        C  0.59647300  0.24098762  0.61953405    -0.32590
C602        C  0.56289977  0.24598515  0.59264888     0.36460
H603        H  0.54340822  0.14468700  0.57200819     0.16830
O604        O  0.60402882  0.12738283  0.62183651    -0.60090
H605        H  0.61097140  0.26805028  0.63285973     0.16850
O606        O  0.55086507  0.28496010  0.58145282    -0.60190
H607        H  0.52633371  0.29101144  0.59872197     0.43840
H608        H  0.62646652  0.12186147  0.60175070     0.43800
C609        C  0.29708467  0.28092622  0.75988490    -0.05260
C610        C  0.31187106  0.28783719  0.71974271    -0.32690
C611        C  0.33860006  0.32077377  0.71150808     0.36560
C612        C  0.35121366  0.34728815  0.74358953    -0.05620
C613        C  0.33595789  0.34098855  0.78348889    -0.32590
C614        C  0.30924632  0.30809775  0.79185951     0.36460
H615        H  0.30226031  0.26804520  0.69453258     0.16830
O616        O  0.35378518  0.32583180  0.67232652    -0.60090
H617        H  0.34667427  0.36021784  0.80869445     0.16850
O618        O  0.29605600  0.30227108  0.83166960    -0.60190
H619        H  0.31592570  0.28243880  0.84387912     0.43840
H620        H  0.33420621  0.34495018  0.65860751     0.43800
C621        C  0.50047516  0.34821622  0.73759176    -0.05260
C622        C  0.52218165  0.34882015  0.77493297    -0.32690
C623        C  0.54973677  0.31711249  0.78502778     0.36560
C624        C  0.55654424  0.28402837  0.75720268    -0.05620
C625        C  0.53620184  0.28467759  0.71887046    -0.32590
C626        C  0.50822877  0.31623476  0.70912381     0.36460
H627        H  0.51574175  0.37257901  0.79757716     0.16830
O628        O  0.56918108  0.31858287  0.82262611    -0.60090
H629        H  0.54171196  0.26055663  0.69638797     0.16850
O630        O  0.48786858  0.31535299  0.67196325    -0.60190
H631        H  0.46753393  0.29255531  0.67421864     0.43840
H632        H  0.55051332  0.30378627  0.84186550     0.43800
C633        C  0.68340286  0.38788047  0.38352205    -0.05260
C634        C  0.72245016  0.37935517  0.36699152    -0.32690
C635        C  0.72662123  0.35269824  0.33333816     0.36560
C636        C  0.69134495  0.33442330  0.31544414    -0.05620
C637        C  0.65228799  0.34268648  0.33221590    -0.32590
C638        C  0.64823632  0.36902621  0.36622911     0.36460
H639        H  0.74951155  0.39504778  0.37893809     0.16830
O640        O  0.76525150  0.34532498  0.31758607    -0.60090
H641        H  0.62499049  0.32810040  0.31941997     0.16850
O642        O  0.60960615  0.37793526  0.38108436    -0.60190
H643        H  0.60483468  0.35769234  0.40353811     0.43840
H644        H  0.76857389  0.36541390  0.29473289     0.43800
C645        C  0.61019871  0.19894948  0.37170300    -0.05260
C646        C  0.59485632  0.23829475  0.38129901    -0.32690
C647        C  0.56140664  0.24284954  0.40838266     0.36560
C648        C  0.54325554  0.20788554  0.42666933    -0.05620
C649        C  0.55852808  0.16860391  0.41704352    -0.32590
C650        C  0.59159243  0.16394556  0.38971203     0.36460
H651        H  0.60815758  0.26544423  0.36702299     0.16830
O652        O  0.54778818  0.28165627  0.41827462    -0.60090
H653        H  0.54596160  0.14160494  0.43228904     0.16850
O654        O  0.60606140  0.12504146  0.38140420    -0.60190
H655        H  0.62917305  0.12072136  0.40104070     0.43840
H656        H  0.52524047  0.28748918  0.39838095     0.43800
C657        C  0.35295892  0.34785982  0.24197331    -0.05260
C658        C  0.33902322  0.33652467  0.20267361    -0.32690
C659        C  0.31237370  0.30287810  0.19767267     0.36560
C660        C  0.29925252  0.27989968  0.23237509    -0.05620
C661        C  0.31348696  0.29120152  0.27167460    -0.32590
C662        C  0.33976908  0.32514671  0.27662006     0.36460
H663        H  0.35048205  0.35253624  0.17563164     0.16830
O664        O  0.30001323  0.29219254  0.15859078    -0.60090
H665        H  0.30326447  0.27445656  0.29877365     0.16850
O666        O  0.35389796  0.33497598  0.31530737    -0.60190
H667        H  0.33444977  0.35618587  0.32572336     0.43840
H668        H  0.31959999  0.27043139  0.14967175     0.43800
C669        C  0.50200897  0.35003332  0.25224156    -0.05260
C670        C  0.50628884  0.31880014  0.28209160    -0.32690
C671        C  0.53346388  0.28573454  0.27603998     0.36560
C672        C  0.55750182  0.28369491  0.23982376    -0.05620
C673        C  0.55474790  0.31637197  0.21115577    -0.32590
C674        C  0.52735736  0.34919162  0.21712958     0.36460
H675        H  0.48648777  0.31875319  0.30905956     0.16830
O676        O  0.53587171  0.25555136  0.30557572    -0.60090
H677        H  0.57319345  0.31615016  0.18327313     0.16850
O678        O  0.52294664  0.37824787  0.18666976    -0.60190
H679        H  0.54311108  0.40022047  0.19363973     0.43840
H680        H  0.51321459  0.23601223  0.29899716     0.43800
C681        C  0.10757634  0.83484065  0.26154309    -0.05260
C682        C  0.10432741  0.85456139  0.22306756    -0.32690
C683        C  0.07225915  0.88250438  0.21520541     0.36560
C684        C  0.04244851  0.89075898  0.24579184    -0.05620
C685        C  0.04471150  0.87008391  0.28359648    -0.32590
C686        C  0.07680756  0.84238494  0.29169284     0.36460
H687        H  0.12672866  0.84846687  0.19899203     0.16830
O688        O  0.07052923  0.90226955  0.17778471    -0.60090
H689        H  0.02287528  0.87728662  0.30790205     0.16850
O690        O  0.07881782  0.82447418  0.33001027    -0.60190
H691        H  0.05891498  0.80120524  0.32906212     0.43840
H692        H  0.09250626  0.92358940  0.17879077     0.43800
C693        C  0.04195756  0.03984344  0.25121299    -0.05260
C694        C  0.04854274  0.05673834  0.29041916    -0.32690
C695        C  0.08158994  0.08376188  0.29757526     0.36560
C696        C  0.10907893  0.09407250  0.26519083    -0.05620
C697        C  0.10174051  0.07783181  0.22568671    -0.32590
C698        C  0.06853570  0.05099282  0.21860839     0.36460
H699        H  0.02940361  0.04712768  0.31612158     0.16830
O700        O  0.08796372  0.09816739  0.33689111    -0.60090
H701        H  0.12150509  0.08624753  0.20005052     0.16850
O702        O  0.06256694  0.03502592  0.17982806    -0.60190
H703        H  0.08372520  0.01313008  0.17669924     0.43840
H704        H  0.06796501  0.12107137  0.34040117     0.43800
C705        C  0.80931441  0.88926773  0.75324815    -0.05260
C706        C  0.80821987  0.86805825  0.71566810    -0.32690
C707        C  0.77681200  0.83952142  0.70732130     0.36560
C708        C  0.74544770  0.83187715  0.73686827    -0.05620
C709        C  0.74769114  0.85199871  0.77519667    -0.32590
C710        C  0.77914802  0.88057027  0.78340056     0.36460
H711        H  0.83051420  0.87528343  0.69178739     0.16830
O712        O  0.77611543  0.82079141  0.66935222    -0.60090
H713        H  0.72495788  0.84574151  0.79891803     0.16850
O714        O  0.78005081  0.90039673  0.82082901    -0.60190
H715        H  0.75692557  0.92044313  0.82003676     0.43840
H716        H  0.79601429  0.79762739  0.67147388     0.43800
C717        C  0.81043779  0.03877875  0.75381738    -0.05260
C718        C  0.78452968  0.04983279  0.78672912    -0.32690
C719        C  0.75214062  0.07788205  0.78096391     0.36560
C720        C  0.74524411  0.09540458  0.74172228    -0.05620
C721        C  0.77210881  0.08507324  0.70915232    -0.32590
C722        C  0.80415856  0.05675303  0.71488738     0.36460
H723        H  0.78845203  0.03532755  0.81661314     0.16830
O724        O  0.72813121  0.08860088  0.81409461    -0.60090
H725        H  0.76778816  0.09836126  0.67877208     0.16850
O726        O  0.82794093  0.04529129  0.68177782    -0.60190
H727        H  0.81316327  0.02166287  0.66906524     0.43840
H728        H  0.70694774  0.06658096  0.81619896     0.43800
C729        C  0.04056896  0.88829809  0.75358776    -0.05260
C730        C  0.04248726  0.86779129  0.71564222    -0.32690
C731        C  0.07421507  0.83970058  0.70741396     0.36560
C732        C  0.10462482  0.83130028  0.73769921    -0.05620
C733        C  0.10158056  0.85077406  0.77633655    -0.32590
C734        C  0.06991453  0.87905540  0.78432803     0.36460
H735        H  0.02080582  0.87552829  0.69134486     0.16830
O736        O  0.07572290  0.82158163  0.66917612    -0.60090
H737        H  0.12382454  0.84416594  0.80045380     0.16850
O738        O  0.06899512  0.89911355  0.82158925    -0.60190
H739        H  0.05072112  0.88212138  0.83932822     0.43840
H740        H  0.09335454  0.84003090  0.65225388     0.43800
C741        C  0.04171631  0.03752367  0.74669174    -0.05260
C742        C  0.05692446  0.04638757  0.70717341    -0.32690
C743        C  0.08975906  0.07396243  0.70185884     0.36560
C744        C  0.10818822  0.09296670  0.73642720    -0.05620
C745        C  0.09273306  0.08433507  0.77599576    -0.32590
C746        C  0.05959083  0.05694899  0.78121464     0.36460
H747        H  0.04448062  0.03040594  0.68053058     0.16830
O748        O  0.10426189  0.08143235  0.66278583    -0.60090
H749        H  0.10590411  0.09938801  0.80281380     0.16850
O750        O  0.04603204  0.04791476  0.82026888    -0.60190
H751        H  0.02205374  0.06637030  0.82485820     0.43840
H752        H  0.12736217  0.06172733  0.65889708     0.43800
C753        C  0.81141313  0.88812086  0.25671583    -0.05260
C754        C  0.80105777  0.87403961  0.29624574    -0.32690
C755        C  0.76779627  0.84698274  0.30194151     0.36560
C756        C  0.74414623  0.83369599  0.26774124    -0.05620
C757        C  0.75473312  0.84774839  0.22817239    -0.32590
C758        C  0.78830431  0.87438422  0.22252309     0.36460
H759        H  0.81741511  0.88580677  0.32297058     0.16830
O760        O  0.75798252  0.83461325  0.34122636    -0.60090
H761        H  0.73756454  0.83729088  0.20140227     0.16850
O762        O  0.79720141  0.88849939  0.18362712    -0.60190
H763        H  0.81854944  0.86937143  0.17289779     0.43840
H764        H  0.73652895  0.85427890  0.35070749     0.43800
C765        C  0.80943390  0.03684652  0.24873144    -0.05260
C766        C  0.78066919  0.04362268  0.21693676    -0.32690
C767        C  0.74739277  0.07070300  0.22242523     0.36560
C768        C  0.74269265  0.09189103  0.26015214    -0.05620
C769        C  0.77218028  0.08553868  0.29155611    -0.32590
C770        C  0.80499412  0.05810293  0.28618807     0.36460
H771        H  0.78308127  0.02639931  0.18836539     0.16830
O772        O  0.72048495  0.07700177  0.19033147    -0.60090
H773        H  0.76955329  0.10143499  0.32085412     0.16850
O774        O  0.83135186  0.05063495  0.31851610    -0.60190
H775        H  0.81836784  0.02788078  0.33436707     0.43840
H776        H  0.69970499  0.05462935  0.19266701     0.43800
C777        C  0.85414964  0.21560191  0.11640141    -0.05260
C778        C  0.84206593  0.18150985  0.14023283    -0.32690
C779        C  0.81401631  0.18604016  0.17275509     0.36560
C780        C  0.79776636  0.22524687  0.18211532    -0.05620
C781        C  0.80943483  0.25921029  0.15762166    -0.32590
C782        C  0.83770989  0.25466091  0.12532465     0.36460
H783        H  0.85557365  0.15148106  0.13440444     0.16830
O784        O  0.80240868  0.15186904  0.19478563    -0.60090
H785        H  0.79707168  0.28962500  0.16391445     0.16850
O786        O  0.85045893  0.28882231  0.10380045    -0.60190
H787        H  0.87455975  0.29962194  0.11934676     0.43840
H788        H  0.77836480  0.14051361  0.17959735     0.43800
C789        C  0.05766768  0.22239604  0.18263315    -0.05260
C790        C  0.05093117  0.25349695  0.15295721    -0.32690
C791        C  0.02404071  0.24730409  0.11978834     0.36560
C792        C  0.00323932  0.20953906  0.11557278    -0.05620
C793        C  0.01097007  0.17782493  0.14413261    -0.32590
C794        C  0.03784539  0.18399996  0.17748716     0.36460
H795        H  0.06594619  0.28324733  0.15581246     0.16830
O796        O  0.01555302  0.27956867  0.09373794    -0.60090
H797        H  0.99435193  0.14888079  0.14172330     0.16850
O798        O  0.04464697  0.15221730  0.20453802    -0.60190
H799        H  0.02187776  0.15393889  0.22492762     0.43840
H800        H  0.03548575  0.27668133  0.07069254     0.43800
C801        C  0.85090688  0.71973609  0.88402604    -0.05260
C802        C  0.82978229  0.68209778  0.88269030    -0.32690
C803        C  0.80180191  0.67352666  0.85087936     0.36560
C804        C  0.79446348  0.70298480  0.81940488    -0.05620
C805        C  0.81441850  0.74142819  0.82187820    -0.32590
C806        C  0.84262287  0.74976919  0.85366684     0.36460
H807        H  0.83686472  0.65822601  0.90502520     0.16830
O808        O  0.78345379  0.63536692  0.84984200    -0.60090
H809        H  0.80837779  0.76508341  0.79902348     0.16850
O810        O  0.86262514  0.78711087  0.85457261    -0.60190
H811        H  0.88373480  0.78564422  0.83244345     0.43840
H812        H  0.76001971  0.63714498  0.86947355     0.43800
C813        C  0.00045167  0.71378833  0.88417381    -0.05260
C814        C  0.01851138  0.67482772  0.87971633    -0.32690
C815        C  0.04623193  0.66700979  0.84749645     0.36560
C816        C  0.05648082  0.69859427  0.81910668    -0.05620
C817        C  0.03915204  0.73792920  0.82443695    -0.32590
C818        C  0.01153731  0.74564327  0.85671309     0.36460
H819        H  0.00929083  0.64975707  0.89984537     0.16830
O820        O  0.06223980  0.62803799  0.84349441    -0.60090
H821        H  0.04731274  0.76294899  0.80379002     0.16850
O822        O  0.99397186  0.78398664  0.86015231    -0.60190
H823        H  0.01238012  0.79951053  0.87908440     0.43840
H824        H  0.04326540  0.61350914  0.82432574     0.43800
C825        C  0.18840940  0.14837804  0.87104493    -0.05260
C826        C  0.14855711  0.13446137  0.88096233    -0.32690
C827        C  0.14307153  0.10092419  0.90770473     0.36560
C828        C  0.17762598  0.08106124  0.92500612    -0.05620
C829        C  0.21738232  0.09476223  0.91487579    -0.32590
C830        C  0.22295765  0.12811278  0.88815693     0.36460
H831        H  0.12170189  0.14910359  0.86738468     0.16830
O832        O  0.10386558  0.08885445  0.91822755    -0.60090
H833        H  0.24412174  0.08082740  0.92940401     0.16850
O834        O  0.26234439  0.14121317  0.87958270    -0.60190
H835        H  0.26784797  0.16377188  0.89953878     0.43840
H836        H  0.09652297  0.06704677  0.89803224     0.43800
C837        C  0.17647200  0.07966537  0.07369379    -0.05260
C838        C  0.21625038  0.09370541  0.08342094    -0.32690
C839        C  0.22194964  0.12667604  0.11059978     0.36560
C840        C  0.18750806  0.14624165  0.12865146    -0.05620
C841        C  0.14764030  0.13181368  0.11937475    -0.32590
C842        C  0.14203335  0.09866477  0.09210589     0.36460
H843        H  0.24288673  0.08040360  0.06814957     0.16830
O844        O  0.26133377  0.14018064  0.11859984    -0.60090
H845        H  0.12088513  0.14583712  0.13375756     0.16850
O846        O  0.10278661  0.08625106  0.08212971    -0.60190
H847        H  0.09693418  0.06263371  0.10068994     0.43840
H848        H  0.26613596  0.16308102  0.09886577     0.43800
C849        C  0.66848086  0.84810729  0.92243313    -0.05260
C850        C  0.62908231  0.83271385  0.91316147    -0.32690
C851        C  0.62427570  0.79940991  0.88610016     0.36560
C852        C  0.65924235  0.78071148  0.86814948    -0.05620
C853        C  0.69864804  0.79647685  0.87702310    -0.32590
C854        C  0.70335681  0.83006959  0.90382652     0.36460
H855        H  0.60216785  0.84527262  0.92856053     0.16830
O856        O  0.58532555  0.78470137  0.87813973    -0.60090
H857        H  0.72575847  0.78315073  0.86262720     0.16850
O858        O  0.74229569  0.84375672  0.91336934    -0.60190
H859        H  0.74677857  0.86817583  0.89548485     0.43840
H860        H  0.58109646  0.76193847  0.89816030     0.43800
C861        C  0.67888648  0.84762035  0.07147153    -0.05260
C862        C  0.71020360  0.81845916  0.07852236    -0.32690
C863        C  0.70471473  0.78645857  0.10711290     0.36560
C864        C  0.66727556  0.78314724  0.12912919    -0.05620
C865        C  0.63649631  0.81322300  0.12264755    -0.32590
C866        C  0.64209500  0.84513569  0.09420439     0.36460
H867        H  0.73837536  0.81959277  0.06050149     0.16830
O868        O  0.73632074  0.75907193  0.11357342    -0.60090
H869        H  0.60746507  0.81172239  0.13919575     0.16850
O870        O  0.61012325  0.87179460  0.08646542    -0.60190
H871        H  0.61457294  0.89530561  0.10555094     0.43840
H872        H  0.73314301  0.73782843  0.09176603     0.43800
C873        C  0.85168930  0.21063082  0.88565581    -0.05260
C874        C  0.83141759  0.24869509  0.88375282    -0.32690
C875        C  0.80335890  0.25721036  0.85199151     0.36560
C876        C  0.79523479  0.22732654  0.82113967    -0.05620
C877        C  0.81430025  0.18850160  0.82426563    -0.32590
C878        C  0.84243464  0.18015360  0.85605112     0.36460
H879        H  0.83923755  0.27284578  0.90555355     0.16830
O880        O  0.78573814  0.29565338  0.85033278    -0.60090
H881        H  0.80755118  0.16450101  0.80195962     0.16850
O882        O  0.86148583  0.14237085  0.85764091    -0.60190
H883        H  0.88277465  0.14301690  0.83564371     0.43840
H884        H  0.76233750  0.29462382  0.87005909     0.43800
C885        C  0.00114528  0.21451525  0.88381850    -0.05260
C886        C  0.01773171  0.25383851  0.87721571    -0.32690
C887        C  0.04472759  0.26110193  0.84428811     0.36560
C888        C  0.05590688  0.22855726  0.81739198    -0.05620
C889        C  0.04003041  0.18891888  0.82479378    -0.32590
C890        C  0.01269300  0.18186168  0.85754480     0.36460
H891        H  0.00787859  0.27950968  0.89625231     0.16830
O892        O  0.05921639  0.30041908  0.83818983    -0.60090
H893        H  0.04896742  0.16325449  0.80532726     0.16850
O894        O  0.99676406  0.14306276  0.86342276    -0.60190
H895        H  0.97438603  0.14020553  0.84269205     0.43840
H896        H  0.03955346  0.31321298  0.81850832     0.43800
C897        C  0.79634656  0.70050284  0.18232457    -0.05260
C898        C  0.80624459  0.66763849  0.15561054    -0.32690
C899        C  0.83371992  0.67316248  0.12273424     0.36560
C900        C  0.85100856  0.71220749  0.11537098    -0.05620
C901        C  0.84027005  0.74533588  0.14116379    -0.32590
C902        C  0.81347103  0.73969429  0.17455683     0.36460
H903        H  0.79322551  0.63724787  0.16065184     0.16830
O904        O  0.84500489  0.63983569  0.09919872    -0.60090
H905        H  0.85432791  0.77533560  0.13646758     0.16850
O906        O  0.80337574  0.77296276  0.19859801    -0.60190
H907        H  0.82597567  0.77524707  0.21915086     0.43840
H908        H  0.86913339  0.62763914  0.11359308     0.43800
C909        C  0.05549056  0.70394077  0.18118601    -0.05260
C910        C  0.03500487  0.74203415  0.17838850    -0.32690
C911        C  0.00751557  0.75003435  0.14591514     0.36560
C912        C  0.00002152  0.71977960  0.11554727    -0.05620
C913        C  0.02106312  0.68219573  0.11766922    -0.32590
C914        C  0.04854144  0.67406386  0.14998095     0.36460
H915        H  0.04053476  0.76589663  0.20117206     0.16830
O916        O  0.98743902  0.78727957  0.14430349    -0.60090
H917        H  0.01428862  0.65803349  0.09553078     0.16850
O918        O  0.06680855  0.63591796  0.15174324    -0.60190
H919        H  0.09024750  0.63728859  0.13208202     0.43840
H920        H  0.96566337  0.78576922  0.16577540     0.43800
C921        C  0.68091194  0.07942832  0.92317319    -0.05260
C922        C  0.71074887  0.11058750  0.91811775    -0.32690
C923        C  0.70376852  0.14401732  0.89165712     0.36560
C924        C  0.66651636  0.14654657  0.86920018    -0.05620
C925        C  0.63771585  0.11405255  0.87276405    -0.32590
C926        C  0.64469957  0.08079803  0.89937890     0.36460
H927        H  0.73863769  0.11013534  0.93663864     0.16830
O928        O  0.73376105  0.17367017  0.88780650    -0.60090
H929        H  0.60910276  0.11466832  0.85542930     0.16850
O930        O  0.61435661  0.05169702  0.90452789    -0.60190
H931        H  0.62032325  0.03017247  0.88361198     0.43840
H932        H  0.72870934  0.19328781  0.91074577     0.43800
C933        C  0.67721781  0.07893547  0.07281902    -0.05260
C934        C  0.70788584  0.10908290  0.07907044    -0.32690
C935        C  0.70181017  0.14177938  0.10660844     0.36560
C936        C  0.66472954  0.14449757  0.12924091    -0.05620
C937        C  0.63495869  0.11300932  0.12440207    -0.32590
C938        C  0.64095659  0.08055881  0.09648281     0.36460
H939        H  0.73588919  0.10842243  0.06075496     0.16830
O940        O  0.73245263  0.17066880  0.11114876    -0.60090
H941        H  0.60638073  0.11384063  0.14175257     0.16850
O942        O  0.60983731  0.05250693  0.09023591    -0.60190
H943        H  0.61437735  0.03076232  0.11128311     0.43840
H944        H  0.72764794  0.19106165  0.08883991     0.43800
C945        C  0.17064232  0.84948636  0.92251649    -0.05260
C946        C  0.14104778  0.81826364  0.91664079    -0.32690
C947        C  0.14822277  0.78562748  0.88923672     0.36560
C948        C  0.18552201  0.78385446  0.86678544    -0.05620
C949        C  0.21404687  0.81648154  0.87113526    -0.32590
C950        C  0.20683945  0.84899417  0.89865493     0.36460
H951        H  0.11315414  0.81805510  0.93512960     0.16830
O952        O  0.11844712  0.75585885  0.88463626    -0.60090
H953        H  0.24266736  0.81643824  0.85383064     0.16850
O954        O  0.23695442  0.87819698  0.90454911    -0.60190
H955        H  0.23085187  0.90014949  0.88412324     0.43840
H956        H  0.12337518  0.73595557  0.90735643     0.43800
C957        C  0.18718316  0.78371198  0.12865298    -0.05260
C958        C  0.22095955  0.80823817  0.11646996    -0.32690
C959        C  0.21593297  0.84036572  0.08807835     0.36560
C960        C  0.17660736  0.84900978  0.07196999    -0.05620
C961        C  0.14265476  0.82534233  0.08478189    -0.32590
C962        C  0.14763553  0.79312055  0.11309626     0.36460
H963        H  0.25159244  0.80203045  0.12843000     0.16830
O964        O  0.24988497  0.86201090  0.07489132    -0.60090
H965        H  0.11237366  0.83109008  0.07171619     0.16850
O966        O  0.11356409  0.77143343  0.12566696    -0.60190
H967        H  0.10302833  0.78682335  0.14991988     0.43840
H968        H  0.26040757  0.84650142  0.05068932     0.43800
loop_ 
_geom_bond_atom_site_label_1 
_geom_bond_atom_site_label_2 
_geom_bond_distance 
_geom_bond_site_symmetry_2 
_ccdc_geom_bond_type 
C1            C2   1.387       .  A
C1            C6   1.409       .  A
C1          C945   1.480       .  S
C2            C3   1.384   1_556  A
C2            H7   1.086       .  S
C3            C4   1.405       .  A
C3          C960   1.472       .  S
C4            C5   1.426   1_554  A
C4            H8   1.077       .  S
C5            C6   1.428       .  A
C5           C48   1.528       .  S
C6            H9   1.077       .  S
C10          C11   1.385       .  A
C10          C15   1.408       .  A
C10         C921   1.479       .  S
C11          C12   1.386   1_556  A
C11          H16   1.086       .  S
C12          C13   1.409       .  A
C12         C933   1.481       .  S
C13          C14   1.428   1_544  A
C13          H17   1.077   1_545  S
C14          C15   1.427   1_565  A
C14          C39   1.527       .  S
C15          H18   1.077   1_545  S
C19          C20   1.384       .  A
C19          C24   1.408       .  A
C19         C912   1.476   1_655  S
C20          C21   1.384       .  A
C20          H25   1.086       .  S
C21          C22   1.407       .  A
C21         C900   1.474       .  S
C22          C23   1.427       .  A
C22          H26   1.078       .  S
C23          C24   1.428       .  A
C23          C59   1.527   1_554  S
C24          H27   1.077       .  S
C28          C29   1.386       .  A
C28          C33   1.407       .  A
C28         C873   1.476       .  S
C29          C30   1.385       .  A
C29          H34   1.086       .  S
C30          C31   1.407       .  A
C30         C885   1.475   1_655  S
C31          C32   1.427       .  A
C31          H35   1.077       .  S
C32          C33   1.427       .  A
C32          C66   1.527   1_556  S
C33          H36   1.077       .  S
C37          C38   1.407       .  A
C37          C42   1.385       .  A
C37         C849   1.472       .  S
C38          C39   1.427       .  A
C38          H43   1.078       .  S
C39          C40   1.426   1_556  A
C40          C41   1.407       .  A
C40          H44   1.077       .  S
C41          C42   1.385   1_554  A
C41         C861   1.475       .  S
C42          H45   1.086       .  S
C46          C47   1.406       .  A
C46          C51   1.384       .  A
C46         C828   1.470       .  S
C47          C48   1.427   1_545  A
C47          H52   1.077   1_545  S
C48          C49   1.428   1_566  A
C49          C50   1.406       .  A
C49          H53   1.076   1_545  S
C50          C51   1.383   1_554  A
C50         C837   1.472       .  S
C51          H54   1.086       .  S
C55          C56   1.386       .  A
C55          C60   1.408       .  A
C55         C801   1.478       .  S
C56          C57   1.386       .  A
C56          H61   1.086       .  S
C57          C58   1.407       .  A
C57         C813   1.476   1_655  S
C58          C59   1.426       .  A
C58          H62   1.078       .  S
C59          C60   1.427       .  A
C60          H63   1.077       .  S
C64          C65   1.406       .  A
C64          C69   1.383       .  A
C64         C777   1.472       .  S
C65          C66   1.426       .  A
C65          H70   1.077       .  S
C66          C67   1.427       .  A
C67          C68   1.408       .  A
C67          H71   1.077       .  S
C68          C69   1.384       .  A
C68         C792   1.475   1_655  S
C69          H72   1.086       .  S
C73          C74   1.383       .  A
C73          C78   1.407       .  A
C73         C753   1.474       .  S
C74          C75   1.384       .  A
C74          H79   1.086       .  S
C75          C76   1.408   1_565  A
C75         C765   1.474   1_565  S
C76          C77   1.427   1_545  A
C76          H80   1.078       .  S
C77          C78   1.429       .  A
C77         C102   1.528       .  S
C78          H81   1.077       .  S
C82          C83   1.407   1_455  A
C82          C87   1.386       .  A
C82         C729   1.475       .  S
C83          C84   1.426       .  A
C83          H88   1.077       .  S
C84          C85   1.428   1_565  A
C84          C93   1.529       .  S
C85          C86   1.407   1_655  A
C85          H89   1.077       .  S
C86          C87   1.385   1_545  A
C86         C741   1.474       .  S
C87          H90   1.086       .  S
C91          C92   1.406       .  A
C91          C96   1.385   1_545  A
C91         C717   1.473       .  S
C92          C93   1.426   1_545  A
C92          H97   1.077       .  S
C93          C94   1.428       .  A
C94          C95   1.409       .  A
C94          H98   1.077       .  S
C95          C96   1.386       .  A
C95         C705   1.479       .  S
C96          H99   1.086       .  S
C100        C101   1.409   1_455  A
C100        C105   1.385   1_545  A
C100        C693   1.477       .  S
C101        C102   1.428   1_545  A
C101        H106   1.078       .  S
C102        C103   1.426       .  A
C103        C104   1.407   1_655  A
C103        H107   1.077       .  S
C104        C105   1.385       .  A
C104        C684   1.476       .  S
C105        H108   1.086       .  S
C109        C110   1.385       .  A
C109        C114   1.409       .  A
C109        C669   1.479       .  S
C110        C111   1.383       .  A
C110        H115   1.086       .  S
C111        C112   1.406       .  A
C111        C657   1.472       .  S
C112        C113   1.426       .  A
C112        H116   1.078       .  S
C113        C114   1.428       .  A
C113        C191   1.525       .  S
C114        H117   1.078       .  S
Fe118       O134   2.064       .  S
Fe118       O124   2.084       .  S
Fe118       O131   2.087       .  S
Fe118       O123   2.065       .  S
Fe118       O129   1.916       .  S
Fe119       O122   2.063       .  S
Fe119       O126   2.082       .  S
Fe119       O130   2.060       .  S
Fe119       O135   2.082       .  S
Fe119       O129   1.913       .  S
Fe120       O138   2.082       .  S
Fe120       O125   2.062       .  S
Fe120       O132   2.061       .  S
Fe120       O121   2.086       .  S
Fe120       O129   1.909       .  S
O121        C128   1.276       .  A
O122        C136   1.269       .  A
O123        C128   1.269       .  A
O124        C127   1.276       .  A
O125        C137   1.267       .  A
O126        C139   1.276       .  A
C127        C768   1.484       .  S
C127        O132   1.268       .  A
C128        C645   1.475       .  S
O130        C133   1.268       .  A
O131        C133   1.276       .  A
C133        C672   1.488       .  S
O134        C139   1.269       .  A
O135        C137   1.276       .  A
C136        C780   1.479       .  S
C136        O138   1.276       .  A
C137        C636   1.471       .  S
C139        C936   1.487       .  S
C140        C141   1.385       .  A
C140        C145   1.406       .  A
C140        C612   1.473       .  S
C141        C142   1.386       .  A
C141        H146   1.086       .  S
C142        C143   1.409       .  A
C142        C621   1.480       .  S
C143        C144   1.429       .  A
C143        H147   1.077       .  S
C144        C145   1.426       .  A
C144        C240   1.528       .  S
C145        H148   1.077       .  S
C149        C150   1.383       .  A
C149        C154   1.406       .  A
C149        C597   1.471       .  S
C150        C151   1.383       .  A
C150        H155   1.087       .  S
C151        C152   1.407       .  A
C151        C648   1.472       .  S
C152        C153   1.429       .  A
C152        H156   1.077       .  S
C153        C154   1.428       .  A
C153        C311   1.528       .  S
C154        H157   1.077       .  S
Fe158       O174   2.082       .  S
Fe158       O164   2.063       .  S
Fe158       O171   2.067       .  S
Fe158       O163   2.079       .  S
Fe158       O169   1.912       .  S
Fe159       O162   2.085       .  S
Fe159       O166   2.061       .  S
Fe159       O170   2.081       .  S
Fe159       O175   2.062       .  S
Fe159       O169   1.913       .  S
Fe160       O178   2.065       .  S
Fe160       O165   2.081       .  S
Fe160       O172   2.080       .  S
Fe160       O161   2.066       .  S
Fe160       O169   1.916       .  S
O161        C168   1.269       .  A
O162        C176   1.277       .  A
O163        C168   1.275       .  A
O164        C167   1.269       .  A
O165        C177   1.275       .  A
O166        C179   1.268       .  A
C167        C585   1.485       .  S
C167        O172   1.275       .  A
C168        C876   1.485       .  S
O170        C173   1.276       .  A
O171        C173   1.271       .  A
C173        C720   1.482       .  S
O174        C179   1.275       .  A
O175        C177   1.268       .  A
C176        C624   1.489       .  S
C176        O178   1.269       .  A
C177        C924   1.486       .  S
C179        C600   1.474       .  S
C180        C181   1.383       .  A
C180        C185   1.404       .  A
C180        C633   1.470       .  S
C181        C182   1.387       .  A
C181        H186   1.086       .  S
C182        C183   1.410       .  A
C182        C573   1.481       .  S
C183        C184   1.427       .  A
C183        H187   1.078       .  S
C184        C185   1.425       .  A
C184        C231   1.523       .  S
C185        H188   1.078       .  S
C189        C190   1.408       .  A
C189        C194   1.385       .  A
C189        C549   1.476       .  S
C190        C191   1.428       .  A
C190        H195   1.078       .  S
C191        C192   1.426       .  A
C192        C193   1.406       .  A
C192        H196   1.078       .  S
C193        C194   1.383       .  A
C193        C564   1.472       .  S
C194        H197   1.086       .  S
Fe198       O214   2.081       .  S
Fe198       O204   2.060       .  S
Fe198       O211   2.066       .  S
Fe198       O203   2.085       .  S
Fe198       O209   1.915       .  S
Fe199       O202   2.081       .  S
Fe199       O206   2.066       .  S
Fe199       O210   2.081       .  S
Fe199       O215   2.066       .  S
Fe199       O209   1.911       .  S
Fe200       O218   2.061       .  S
Fe200       O205   2.083       .  S
Fe200       O212   2.088       .  S
Fe200       O201   2.063       .  S
Fe200       O209   1.917       .  S
O201        C208   1.268       .  A
O202        C216   1.274       .  A
O203        C208   1.277       .  A
O204        C207   1.268       .  A
O205        C217   1.277       .  A
O206        C219   1.270       .  A
C207        C576   1.488       .  S
C207        O212   1.276       .  A
C208        C897   1.481       .  S
O210        C213   1.275       .  A
O211        C213   1.268       .  A
C213        C756   1.479       .  S
O214        C219   1.276       .  A
O215        C217   1.271       .  A
C216        C561   1.479       .  S
C216        O218   1.267       .  A
C217        C864   1.485       .  S
C219        C537   1.487       .  S
C220        C221   1.407       .  A
C220        C225   1.385       .  A
C220        C540   1.478       .  S
C221        C222   1.427       .  A
C221        H226   1.077       .  S
C222        C223   1.428       .  A
C222        C271   1.528       .  S
C223        C224   1.410       .  A
C223        H227   1.078       .  S
C224        C225   1.386       .  A
C224        C525   1.481       .  S
C225        H228   1.086       .  S
C229        C230   1.406       .  A
C229        C234   1.385       .  A
C229        C588   1.476       .  S
C230        C231   1.426       .  A
C230        H235   1.078       .  S
C231        C232   1.426       .  A
C232        C233   1.408       .  A
C232        H236   1.079       .  S
C233        C234   1.385       .  A
C233        C513   1.475       .  S
C234        H237   1.086       .  S
C238        C239   1.406       .  A
C238        C243   1.384       .  A
C238        C489   1.475       .  S
C239        C240   1.426       .  A
C239        H244   1.077       .  S
C240        C241   1.429       .  A
C241        C242   1.410       .  A
C241        H245   1.077       .  S
C242        C243   1.386       .  A
C242        C504   1.481       .  S
C243        H246   1.086       .  S
Fe247       O263   2.064       .  S
Fe247       O253   2.086       .  S
Fe247       O260   2.083       .  S
Fe247       O252   2.064       .  S
Fe247       O258   1.916       .  S
Fe248       O251   2.065       .  S
Fe248       O255   2.083       .  S
Fe248       O259   2.065       .  S
Fe248       O264   2.082       .  S
Fe248       O258   1.911       .  S
Fe249       O267   2.080       .  S
Fe249       O254   2.066       .  S
Fe249       O261   2.062       .  S
Fe249       O250   2.084       .  S
Fe249       O258   1.915       .  S
O250        C257   1.277       .  A
O251        C265   1.270       .  A
O252        C257   1.268       .  A
O253        C256   1.276       .  A
O254        C266   1.268       .  A
O255        C268   1.275       .  A
C256        C528   1.488       .  S
C256        O261   1.268       .  A
C257        C708   1.486       .  S
O259        C262   1.269       .  A
O260        C262   1.277       .  A
C262        C804   1.486       .  S
O263        C268   1.268       .  A
O264        C266   1.275       .  A
C265        C492   1.484       .  S
C265        O267   1.276       .  A
C266        C852   1.473       .  S
C268        C516   1.483       .  S
C269        C270   1.409       .  A
C269        C274   1.386       .  A
C269        C477   1.478       .  S
C270        C271   1.428       .  A
C270        H275   1.078       .  S
C271        C272   1.427       .  A
C272        C273   1.406       .  A
C272        H276   1.077       .  S
C273        C274   1.384       .  A
C273        C465   1.473       .  S
C274        H277   1.086       .  S
C278        C279   1.406       .  A
C278        C283   1.385       .  A
C278        C441   1.475       .  S
C279        C280   1.425       .  A
C279        H284   1.077       .  S
C280        C281   1.428       .  A
C280        C342   1.527       .  S
C281        C282   1.409       .  A
C281        H285   1.077       .  S
C282        C283   1.386       .  A
C282        C456   1.480       .  S
C283        H286   1.086       .  S
Fe287       O303   2.078       .  S
Fe287       O293   2.066       .  S
Fe287       O300   2.061       .  S
Fe287       O292   2.082       .  S
Fe287       O298   1.916       .  S
Fe288       O291   2.079       .  S
Fe288       O295   2.068       .  S
Fe288       O299   2.086       .  S
Fe288       O304   2.060       .  S
Fe288       O298   1.913       .  S
Fe289       O307   2.068       .  S
Fe289       O294   2.081       .  S
Fe289       O301   2.080       .  S
Fe289       O290   2.064       .  S
Fe289       O298   1.915       .  S
O290        C297   1.269       .  A
O291        C305   1.277       .  A
O292        C297   1.274       .  A
O293        C296   1.270       .  A
O294        C306   1.275       .  A
O295        C308   1.270       .  A
C296        C948   1.487       .  S
C296        O301   1.276       .  A
C297        C501   1.489       .  S
O299        C302   1.275       .  A
O300        C302   1.267       .  A
C302        C480   1.489       .  S
O303        C308   1.276       .  A
O304        C306   1.268       .  A
C305        C816   1.482       .  S
C305        O307   1.270       .  A
C306        C444   1.483       .  S
C308        C732   1.484       .  S
C309        C310   1.408       .  A
C309        C314   1.387       .  A
C309        C417   1.478       .  S
C310        C311   1.427       .  A
C310        H315   1.077       .  S
C311        C312   1.427       .  A
C312        C313   1.407       .  A
C312        H316   1.077       .  S
C313        C314   1.385       .  A
C313        C429   1.477       .  S
C314        H317   1.086       .  S
Fe318       O334   2.067       .  S
Fe318       O324   2.080       .  S
Fe318       O331   2.084       .  S
Fe318       O323   2.070       .  S
Fe318       O329   1.914       .  S
Fe319       O322   2.063       .  S
Fe319       O326   2.080       .  S
Fe319       O330   2.063       .  S
Fe319       O335   2.081       .  S
Fe319       O329   1.915       .  S
Fe320       O338   2.080       .  S
Fe320       O325   2.064       .  S
Fe320       O332   2.064       .  S
Fe320       O321   2.083       .  S
Fe320       O329   1.913       .  S
O321        C328   1.276       .  A
O322        C336   1.268       .  A
O323        C328   1.270       .  A
O324        C327   1.275       .  A
O325        C337   1.269       .  A
O326        C339   1.275       .  A
C327        C420   1.485       .  S
C327        O332   1.268       .  A
C328        C744   1.476       .  S
O330        C333   1.268       .  A
O331        C333   1.276       .  A
C333        C888   1.482       .  S
O334        C339   1.270       .  A
O335        C337   1.276       .  A
C336        C609   1.480       .  S
C336        O338   1.275       .  A
C337        C825   1.473       .  S
C339        C453   1.487       .  S
C340        C341   1.407       .  A
C340        C345   1.384       .  A
C340        C396   1.475       .  S
C341        C342   1.428       .  A
C341        H346   1.077       .  S
C342        C343   1.426       .  A
C343        C344   1.405       .  A
C343        H347   1.077       .  S
C344        C345   1.383       .  A
C344        C408   1.470       .  S
C345        H348   1.086       .  S
Fe349       O365   2.068       .  S
Fe349       O355   2.084       .  S
Fe349       O362   2.090       .  S
Fe349       O354   2.069       .  S
Fe349       O360   1.914       .  S
Fe350       O353   2.061       .  S
Fe350       O357   2.081       .  S
Fe350       O361   2.057       .  S
Fe350       O366   2.084       .  S
Fe350       O360   1.912       .  S
Fe351       O369   2.086       .  S
Fe351       O356   2.062       .  S
Fe351       O363   2.061       .  S
Fe351       O352   2.081       .  S
Fe351       O360   1.912       .  S
O352        C359   1.275       .  A
O353        C367   1.267       .  A
O354        C359   1.269       .  A
O355        C358   1.276       .  A
O356        C368   1.269       .  A
O357        C370   1.277       .  A
C358        C681   1.484       .  S
C358        O363   1.268       .  A
C359        C468   1.470       .  S
O361        C364   1.266       .  A
O362        C364   1.277       .  A
C364        C552   1.486       .  S
O365        C370   1.270       .  A
O366        C368   1.276       .  A
C367        C909   1.486       .  S
C367        O369   1.276       .  A
C368        C393   1.485       .  S
C370        C957   1.480       .  S
Fe371       O387   2.087       .  S
Fe371       O377   2.064       .  S
Fe371       O384   2.065       .  S
Fe371       O376   2.084       .  S
Fe371       O382   1.910       .  S
Fe372       O375   2.087       .  S
Fe372       O379   2.062       .  S
Fe372       O383   2.085       .  S
Fe372       O388   2.063       .  S
Fe372       O382   1.916       .  S
Fe373       O391   2.058       .  S
Fe373       O378   2.085       .  S
Fe373       O385   2.083       .  S
Fe373       O374   2.063       .  S
Fe373       O382   1.910       .  S
O374        C381   1.268       .  A
O375        C389   1.276       .  A
O376        C381   1.276       .  A
O377        C380   1.269       .  A
O378        C390   1.277       .  A
O379        C392   1.267       .  A
C380        C840   1.474       .  S
C380        O385   1.276       .  A
C381        C660   1.477       .  S
O383        C386   1.277       .  A
O384        C386   1.269       .  A
C386        C432   1.486       .  S
O387        C392   1.276       .  A
O388        C390   1.268       .  A
C389        C789   1.484       .  S
C389        O391   1.267       .  A
C390        C405   1.478       .  S
C392        C696   1.484       .  S
C393        C394   1.410       .  A
C393        C398   1.411       .  A
C394        C395   1.398       .  A
C394        H399   1.083       .  S
C395        C396   1.403       .  A
C395        O400   1.372       .  S
C396        C397   1.405       .  A
C397        C398   1.401       .  A
C397        H401   1.084       .  S
C398        O402   1.371       .  S
O400        H404   0.992       .  S
O402        H403   0.992       .  S
C405        C406   1.407       .  A
C405        C410   1.408       .  A
C406        C407   1.398       .  A
C406        H411   1.084       .  S
C407        C408   1.404       .  A
C407        O412   1.372       .  S
C408        C409   1.403       .  A
C409        C410   1.400       .  A
C409        H413   1.084       .  S
C410        O414   1.370       .  S
O412        H416   0.992       .  S
O414        H415   0.992       .  S
C417        C418   1.405       .  A
C417        C422   1.404       .  A
C418        C419   1.399       .  A
C418        H423   1.084       .  S
C419        C420   1.410       .  A
C419        O424   1.371       .  S
C420        C421   1.410       .  A
C421        C422   1.400       .  A
C421        H425   1.083       .  S
C422        O426   1.371       .  S
O424        H428   0.992       .  S
O426        H427   0.992       .  S
C429        C430   1.398       .  A
C429        C434   1.410       .  A
C430        C431   1.399       .  A
C430        H435   1.084       .  S
C431        C432   1.417       .  A
C431        O436   1.372       .  S
C432        C433   1.405       .  A
C433        C434   1.402       .  A
C433        H437   1.084       .  S
C434        O438   1.372       .  S
O436        H440   0.992       .  S
O438        H439   0.992       .  S
C441        C442   1.405       .  A
C441        C446   1.403       .  A
C442        C443   1.399       .  A
C442        H447   1.084       .  S
C443        C444   1.410       .  A
C443        O448   1.370       .  S
C444        C445   1.410       .  A
C445        C446   1.398       .  A
C445        H449   1.083       .  S
C446        O450   1.372       .  S
O448        H452   0.992       .  S
O450        H451   0.992       .  S
C453        C454   1.411       .  A
C453        C458   1.411       .  A
C454        C455   1.400       .  A
C454        H459   1.083       .  S
C455        C456   1.404       .  A
C455        O460   1.372       .  S
C456        C457   1.406       .  A
C457        C458   1.400       .  A
C457        H461   1.084       .  S
C458        O462   1.371       .  S
O460        H464   0.992       .  S
O462        H463   0.992       .  S
C465        C466   1.403       .  A
C465        C470   1.407       .  A
C466        C467   1.398       .  A
C466        H471   1.084       .  S
C467        C468   1.407       .  A
C467        O472   1.372       .  S
C468        C469   1.404       .  A
C469        C470   1.402       .  A
C469        H473   1.084       .  S
C470        O474   1.371       .  S
O472        H476   0.992       .  S
O474        H475   0.992       .  S
C477        C478   1.398       .  A
C477        C482   1.410       .  A
C478        C479   1.399       .  A
C478        H483   1.084       .  S
C479        C480   1.418       .  A
C479        O484   1.372       .  S
C480        C481   1.406       .  A
C481        C482   1.403       .  A
C481        H485   1.084       .  S
C482        O486   1.372       .  S
O484        H488   0.992       .  S
O486        H487   0.992       .  S
C489        C490   1.405       .  A
C489        C494   1.403       .  A
C490        C491   1.399       .  A
C490        H495   1.084       .  S
C491        C492   1.410       .  A
C491        O496   1.371       .  S
C492        C493   1.410       .  A
C493        C494   1.399       .  A
C493        H497   1.083       .  S
C494        O498   1.372       .  S
O496        H500   0.992       .  S
O498        H499   0.992       .  S
C501        C502   1.411       .  A
C501        C506   1.411       .  A
C502        C503   1.400       .  A
C502        H507   1.083       .  S
C503        C504   1.404       .  A
C503        O508   1.371       .  S
C504        C505   1.407       .  A
C505        C506   1.401       .  A
C505        H509   1.084       .  S
C506        O510   1.371       .  S
O508        H512   0.992       .  S
O510        H511   0.992       .  S
C513        C514   1.405       .  A
C513        C518   1.404       .  A
C514        C515   1.400       .  A
C514        H519   1.084       .  S
C515        C516   1.410       .  A
C515        O520   1.371       .  S
C516        C517   1.410       .  A
C517        C518   1.400       .  A
C517        H521   1.083       .  S
C518        O522   1.372       .  S
O520        H524   0.992       .  S
O522        H523   0.992       .  S
C525        C526   1.407       .  A
C525        C530   1.403       .  A
C526        C527   1.401       .  A
C526        H531   1.084       .  S
C527        C528   1.410       .  A
C527        O532   1.371       .  S
C528        C529   1.412       .  A
C529        C530   1.400       .  A
C529        H533   1.083       .  S
C530        O534   1.371       .  S
O532        H536   0.992       .  S
O534        H535   0.992       .  S
C537        C538   1.410       .  A
C537        C542   1.411       .  A
C538        C539   1.399       .  A
C538        H543   1.083       .  S
C539        C540   1.404       .  A
C539        O544   1.372       .  S
C540        C541   1.405       .  A
C541        C542   1.400       .  A
C541        H545   1.084       .  S
C542        O546   1.370       .  S
O544        H548   0.992       .  S
O546        H547   0.992       .  S
C549        C550   1.398       .  A
C549        C554   1.410       .  A
C550        C551   1.398       .  A
C550        H555   1.084       .  S
C551        C552   1.418       .  A
C551        O556   1.372       .  S
C552        C553   1.404       .  A
C553        C554   1.402       .  A
C553        H557   1.083       .  S
C554        O558   1.372       .  S
O556        H560   0.992       .  S
O558        H559   0.992       .  S
C561        C562   1.409       .  A
C561        C566   1.409       .  A
C562        C563   1.399       .  A
C562        H567   1.084       .  S
C563        C564   1.404       .  A
C563        O568   1.372       .  S
C564        C565   1.404       .  A
C565        C566   1.399       .  A
C565        H569   1.084       .  S
C566        O570   1.371       .  S
O568        H572   0.992       .  S
O570        H571   0.992       .  S
C573        C574   1.408       .  A
C573        C578   1.403       .  A
C574        C575   1.401       .  A
C574        H579   1.084       .  S
C575        C576   1.408       .  A
C575        O580   1.371       .  S
C576        C577   1.412       .  A
C577        C578   1.399       .  A
C577        H581   1.083       .  S
C578        O582   1.372       .  S
O580        H584   0.991       .  S
O582        H583   0.992       .  S
C585        C586   1.410       .  A
C585        C590   1.411       .  A
C586        C587   1.398       .  A
C586        H591   1.083       .  S
C587        C588   1.404       .  A
C587        O592   1.372       .  S
C588        C589   1.405       .  A
C589        C590   1.401       .  A
C589        H593   1.084       .  S
C590        O594   1.371       .  S
O592        H596   0.992       .  S
O594        H595   0.992       .  S
C597        C598   1.401       .  A
C597        C602   1.407       .  A
C598        C599   1.396       .  A
C598        H603   1.084       .  S
C599        C600   1.410       .  A
C599        O604   1.372       .  S
C600        C601   1.405       .  A
C601        C602   1.402       .  A
C601        H605   1.084       .  S
C602        O606   1.371       .  S
O604        H608   0.992       .  S
O606        H607   0.991       .  S
C609        C610   1.404       .  A
C609        C614   1.415       .  A
C610        C611   1.399       .  A
C610        H615   1.084       .  S
C611        C612   1.409       .  A
C611        O616   1.371       .  S
C612        C613   1.399       .  A
C613        C614   1.399       .  A
C613        H617   1.084       .  S
C614        O618   1.372       .  S
O616        H620   0.992       .  S
O618        H619   0.992       .  S
C621        C622   1.399       .  A
C621        C626   1.410       .  A
C622        C623   1.400       .  A
C622        H627   1.084       .  S
C623        C624   1.418       .  A
C623        O628   1.372       .  S
C624        C625   1.406       .  A
C625        C626   1.402       .  A
C625        H629   1.083       .  S
C626        O630   1.373       .  S
O628        H632   0.992       .  S
O630        H631   0.992       .  S
C633        C634   1.401       .  A
C633        C638   1.408       .  A
C634        C635   1.398       .  A
C634        H639   1.084       .  S
C635        C636   1.410       .  A
C635        O640   1.372       .  S
C636        C637   1.402       .  A
C637        C638   1.400       .  A
C637        H641   1.084       .  S
C638        O642   1.371       .  S
O640        H644   0.992       .  S
O642        H643   0.992       .  S
C645        C646   1.404       .  A
C645        C650   1.411       .  A
C646        C647   1.402       .  A
C646        H651   1.083       .  S
C647        C648   1.407       .  A
C647        O652   1.371       .  S
C648        C649   1.401       .  A
C649        C650   1.398       .  A
C649        H653   1.084       .  S
C650        O654   1.372       .  S
O652        H656   0.992       .  S
O654        H655   0.992       .  S
C657        C658   1.399       .  A
C657        C662   1.409       .  A
C658        C659   1.399       .  A
C658        H663   1.084       .  S
C659        C660   1.414       .  A
C659        O664   1.372       .  S
C660        C661   1.402       .  A
C661        C662   1.399       .  A
C661        H665   1.084       .  S
C662        O666   1.371       .  S
O664        H668   0.992       .  S
O666        H667   0.992       .  S
C669        C670   1.407       .  A
C669        C674   1.403       .  A
C670        C671   1.401       .  A
C670        H675   1.084       .  S
C671        C672   1.410       .  A
C671        O676   1.371       .  S
C672        C673   1.412       .  A
C673        C674   1.399       .  A
C673        H677   1.083       .  S
C674        O678   1.372       .  S
O676        H680   0.992       .  S
O678        H679   0.992       .  S
C681        C682   1.405       .  A
C681        C686   1.417       .  A
C682        C683   1.401       .  A
C682        H687   1.084       .  S
C683        C684   1.409       .  A
C683        O688   1.372       .  S
C684        C685   1.398       .  A
C685        C686   1.398       .  A
C685        H689   1.084       .  S
C686        O690   1.372       .  S
O688        H692   0.992       .  S
O690        H691   0.992       .  S
C693        C694   1.399       .  A
C693        C698   1.410       .  A
C694        C695   1.401       .  A
C694        H699   1.084       .  S
C695        C696   1.416       .  A
C695        O700   1.372       .  S
C696        C697   1.404       .  A
C697        C698   1.401       .  A
C697        H701   1.084       .  S
C698        O702   1.372       .  S
O700        H704   0.992       .  S
O702        H703   0.992       .  S
C705        C706   1.398       .  A
C705        C710   1.410       .  A
C706        C707   1.400       .  A
C706        H711   1.084       .  S
C707        C708   1.418       .  A
C707        O712   1.372       .  S
C708        C709   1.404       .  A
C709        C710   1.401       .  A
C709        H713   1.083       .  S
C710        O714   1.373       .  S
O712        H716   0.992       .  S
O714        H715   0.992       .  S
C717        C718   1.404       .  A
C717        C722   1.404       .  A
C718        C719   1.401       .  A
C718        H723   1.084       .  S
C719        C720   1.410       .  A
C719        O724   1.370       .  S
C720        C721   1.408       .  A
C721        C722   1.398       .  A
C721        H725   1.083       .  S
C722        O726   1.372       .  S
O724        H728   0.992       .  S
O726        H727   0.992       .  S
C729        C730   1.399       .  A
C729        C734   1.408       .  A
C730        C731   1.399       .  A
C730        H735   1.084       .  S
C731        C732   1.416       .  A
C731        O736   1.372       .  S
C732        C733   1.405       .  A
C733        C734   1.400       .  A
C733        H737   1.084       .  S
C734        O738   1.371       .  S
O736        H740   0.992       .  S
O738        H739   0.992       .  S
C741        C742   1.402       .  A
C741        C746   1.407       .  A
C742        C743   1.399       .  A
C742        H747   1.084       .  S
C743        C744   1.410       .  A
C743        O748   1.372       .  S
C744        C745   1.404       .  A
C745        C746   1.402       .  A
C745        H749   1.083       .  S
C746        O750   1.371       .  S
O748        H752   0.992       .  S
O750        H751   0.992       .  S
C753        C754   1.400       .  A
C753        C758   1.408       .  A
C754        C755   1.400       .  A
C754        H759   1.084       .  S
C755        C756   1.413       .  A
C755        O760   1.372       .  S
C756        C757   1.403       .  A
C757        C758   1.399       .  A
C757        H761   1.084       .  S
C758        O762   1.371       .  S
O760        H764   0.992       .  S
O762        H763   0.992       .  S
C765        C766   1.406       .  A
C765        C770   1.403       .  A
C766        C767   1.401       .  A
C766        H771   1.084       .  S
C767        C768   1.410       .  A
C767        O772   1.371       .  S
C768        C769   1.410       .  A
C769        C770   1.397       .  A
C769        H773   1.083       .  S
C770        O774   1.372       .  S
O772        H776   0.992       .  S
O774        H775   0.992       .  S
C777        C778   1.404       .  A
C777        C782   1.404       .  A
C778        C779   1.399       .  A
C778        H783   1.084       .  S
C779        C780   1.409       .  A
C779        O784   1.370       .  S
C780        C781   1.409       .  A
C781        C782   1.398       .  A
C781        H785   1.084       .  S
C782        O786   1.372       .  S
O784        H788   0.991       .  S
O786        H787   0.992       .  S
C789        C790   1.410       .  A
C789        C794   1.409       .  A
C790        C791   1.397       .  A
C790        H795   1.083       .  S
C791        C792   1.403       .  A
C791        O796   1.372       .  S
C792        C793   1.406       .  A
C793        C794   1.401       .  A
C793        H797   1.084   1_455  S
C794        O798   1.370       .  S
O796        H800   0.992       .  S
O798        H799   0.992       .  S
C801        C802   1.399       .  A
C801        C806   1.410       .  A
C802        C803   1.399       .  A
C802        H807   1.084       .  S
C803        C804   1.417       .  A
C803        O808   1.372       .  S
C804        C805   1.405       .  A
C805        C806   1.402       .  A
C805        H809   1.084       .  S
C806        O810   1.372       .  S
O808        H812   0.992       .  S
O810        H811   0.992       .  S
C813        C814   1.399       .  A
C813        C818   1.409       .  A
C814        C815   1.400       .  A
C814        H819   1.084       .  S
C815        C816   1.416       .  A
C815        O820   1.372       .  S
C816        C817   1.404       .  A
C817        C818   1.399       .  A
C817        H821   1.084       .  S
C818        O822   1.372   1_455  S
O820        H824   0.992       .  S
O822        H823   0.992   1_655  S
C825        C826   1.404       .  A
C825        C830   1.411       .  A
C826        C827   1.401       .  A
C826        H831   1.084       .  S
C827        C828   1.407       .  A
C827        O832   1.371       .  S
C828        C829   1.400       .  A
C829        C830   1.397       .  A
C829        H833   1.084       .  S
C830        O834   1.372       .  S
O832        H836   0.992       .  S
O834        H835   0.992       .  S
C837        C838   1.401       .  A
C837        C842   1.407       .  A
C838        C839   1.397       .  A
C838        H843   1.084       .  S
C839        C840   1.410       .  A
C839        O844   1.372       .  S
C840        C841   1.405       .  A
C841        C842   1.402       .  A
C841        H845   1.084       .  S
C842        O846   1.371       .  S
O844        H848   0.992       .  S
O846        H847   0.992       .  S
C849        C850   1.402       .  A
C849        C854   1.408       .  A
C850        C851   1.399       .  A
C850        H855   1.084       .  S
C851        C852   1.410       .  A
C851        O856   1.372       .  S
C852        C853   1.403       .  A
C853        C854   1.401       .  A
C853        H857   1.084       .  S
C854        O858   1.371       .  S
O856        H860   0.992       .  S
O858        H859   0.992       .  S
C861        C862   1.405       .  A
C861        C866   1.403       .  A
C862        C863   1.402       .  A
C862        H867   1.084       .  S
C863        C864   1.411       .  A
C863        O868   1.371       .  S
C864        C865   1.410       .  A
C865        C866   1.397       .  A
C865        H869   1.083       .  S
C866        O870   1.372       .  S
O868        H872   0.992       .  S
O870        H871   0.992       .  S
C873        C874   1.399       .  A
C873        C878   1.409       .  A
C874        C875   1.400       .  A
C874        H879   1.084       .  S
C875        C876   1.416       .  A
C875        O880   1.372       .  S
C876        C877   1.406       .  A
C877        C878   1.401       .  A
C877        H881   1.084       .  S
C878        O882   1.372       .  S
O880        H884   0.992       .  S
O882        H883   0.992       .  S
C885        C886   1.399       .  A
C885        C890   1.409       .  A
C886        C887   1.399       .  A
C886        H891   1.084       .  S
C887        C888   1.415       .  A
C887        O892   1.372       .  S
C888        C889   1.404       .  A
C889        C890   1.401       .  A
C889        H893   1.083       .  S
C890        O894   1.372   1_455  S
O892        H896   0.992       .  S
O894        H895   0.992       .  S
C897        C898   1.410       .  A
C897        C902   1.408       .  A
C898        C899   1.399       .  A
C898        H903   1.083       .  S
C899        C900   1.404       .  A
C899        O904   1.372       .  S
C900        C901   1.404       .  A
C901        C902   1.399       .  A
C901        H905   1.084       .  S
C902        O906   1.370       .  S
O904        H908   0.992       .  S
O906        H907   0.992       .  S
C909        C910   1.405       .  A
C909        C914   1.418       .  A
C910        C911   1.402       .  A
C910        H915   1.084       .  S
C911        C912   1.410       .  A
C911        O916   1.372   1_455  S
C912        C913   1.398       .  A
C913        C914   1.399       .  A
C913        H917   1.084       .  S
C914        O918   1.372       .  S
O916        H920   0.992       .  S
O918        H919   0.992       .  S
C921        C922   1.407       .  A
C921        C926   1.403       .  A
C922        C923   1.400       .  A
C922        H927   1.084       .  S
C923        C924   1.411       .  A
C923        O928   1.371       .  S
C924        C925   1.411       .  A
C925        C926   1.399       .  A
C925        H929   1.083       .  S
C926        O930   1.371       .  S
O928        H932   0.992       .  S
O930        H931   0.992       .  S
C933        C934   1.407       .  A
C933        C938   1.403       .  A
C934        C935   1.399       .  A
C934        H939   1.084       .  S
C935        C936   1.410       .  A
C935        O940   1.371       .  S
C936        C937   1.412       .  A
C937        C938   1.401       .  A
C937        H941   1.083       .  S
C938        O942   1.371       .  S
O940        H944   0.992       .  S
O942        H943   0.992       .  S
C945        C946   1.406       .  A
C945        C950   1.404       .  A
C946        C947   1.400       .  A
C946        H951   1.084       .  S
C947        C948   1.411       .  A
C947        O952   1.371       .  S
C948        C949   1.410       .  A
C949        C950   1.400       .  A
C949        H953   1.083       .  S
C950        O954   1.371       .  S
O952        H956   0.992       .  S
O954        H955   0.992       .  S
C957        C958   1.408       .  A
C957        C962   1.409       .  A
C958        C959   1.399       .  A
C958        H963   1.083       .  S
C959        C960   1.404       .  A
C959        O964   1.372       .  S
C960        C961   1.403       .  A
C961        C962   1.399       .  A
C961        H965   1.084       .  S
C962        O966   1.370       .  S
O964        H968   0.992       .  S
O966        H967   0.991       .  S
