geometry optimzed in LAMMPS
_audit_creation_date              2020-11-30 
_audit_creation_method            'lammps2cif' 
_symmetry_space_group_name_H-M    'P1' 
_symmetry_Int_Tables_number       1 
_symmetry_cell_setting            triclinic 
loop_ 
_symmetry_equiv_pos_as_xyz 
  x,y,z 
_cell_length_a                    30.784625761712633 
_cell_length_b                    31.32053176868383 
_cell_length_c                    46.9208249580258 
_cell_angle_alpha                 90.24186538011756 
_cell_angle_beta                  89.78021956559735 
_cell_angle_gamma                 119.85940936446472 
loop_ 
_atom_site_label 
_atom_site_type_symbol 
_atom_site_fract_x 
_atom_site_fract_y 
_atom_site_fract_z 
_atom_site_charge 
O1          O  0.86514231  0.56511189  0.12662937    -0.81330
O2          O  0.74981429  0.64635853  0.22028953    -0.81350
O3          O  0.74561869  0.61106271  0.12931737    -0.81360
O4          O  0.89637501  0.71163726  0.16870525    -0.81300
O5          O  0.71970704  0.62382410  0.17002904    -0.81420
O6          O  0.87168112  0.65778449  0.13260469    -0.81340
O7          O  0.81252028  0.70945150  0.19934913    -0.81330
O8          O  0.80347118  0.57485588  0.11317345    -0.81360
C9          C  0.83476162  0.56105605  0.10711802     1.08360
C10         C  0.77325090  0.69192055  0.21476091     1.08250
C11         C  0.72494286  0.62994118  0.14358398     1.08390
C12         C  0.90197911  0.69934540  0.14327733     1.08260
O13         O  0.92174719  0.63765578  0.17326505    -0.81330
O14         O  0.67757895  0.55458121  0.20983968    -0.81400
O15         O  0.76957524  0.50671131  0.16272919    -0.81340
O16         O  0.82007276  0.64403381  0.24068999    -0.81320
O17         O  0.76706357  0.56648309  0.22922334    -0.81370
O18         O  0.83935075  0.55232139  0.18479713    -0.81340
O19         O  0.89050518  0.64273732  0.21293034    -0.81300
O20         O  0.69220173  0.53247480  0.16754103    -0.81370
Co21       Co  0.85162472  0.60120419  0.15738529     1.51530
Co22       Co  0.74401082  0.59139108  0.19720344     1.51690
Co23       Co  0.75926469  0.56268062  0.14733303     1.51570
Co24       Co  0.85260800  0.67518438  0.20319054     1.51470
O25         O  0.80721438  0.61854463  0.17765407    -1.43260
C26         C  0.92795017  0.65106225  0.19882738     1.08290
C27         C  0.66199889  0.52896508  0.18734694     1.08380
C28         C  0.80544326  0.51087644  0.17831514     1.08320
C29         C  0.79414451  0.59871588  0.24760684     1.08290
O30         O  0.85515527  0.76895185  0.40316388    -0.81330
O31         O  0.74543681  0.59074607  0.43870100    -0.81350
O32         O  0.86898257  0.62572992  0.37725306    -0.81360
O33         O  0.79010153  0.68673797  0.48042256    -0.81300
O34         O  0.79110169  0.59803375  0.38753557    -0.81420
O35         O  0.83295850  0.75240704  0.45509110    -0.81340
O36         O  0.76144399  0.59116675  0.48318577    -0.81330
O37         O  0.88077317  0.72035917  0.38151347    -0.81360
C38         C  0.86462950  0.75286294  0.38060951     1.08360
C39         C  0.73016750  0.57228068  0.46268961     1.08250
C40         C  0.82454562  0.60665577  0.36899531     1.08390
C41         C  0.80344187  0.73073093  0.47526868     1.08260
O42         O  0.90076491  0.76871632  0.45589094    -0.81330
O43         O  0.85343796  0.56598373  0.41548871    -0.81400
O44         O  0.95135861  0.72540830  0.43265368    -0.81340
O45         O  0.87061751  0.62285512  0.48623317    -0.81320
O46         O  0.81026584  0.55600774  0.46747101    -0.81370
O47         O  0.92884593  0.77615711  0.42229445    -0.81340
O48         O  0.89606202  0.71805529  0.49003998    -0.81300
O49         O  0.92504942  0.63109196  0.42663327    -0.81370
Co50       Co  0.85318502  0.72085906  0.42560604     1.51530
Co51       Co  0.80262698  0.58356715  0.42783444     1.51690
Co52       Co  0.90382212  0.67533858  0.40752945     1.51570
Co53       Co  0.83209635  0.65564501  0.48196295     1.51470
O54         O  0.84913702  0.65764330  0.43882733    -1.43260
C55         C  0.91613651  0.76108227  0.47964201     1.08290
C56         C  0.89824189  0.58473324  0.42360767     1.08380
C57         C  0.96335103  0.76561110  0.42162928     1.08320
C58         C  0.84285008  0.57739041  0.48741268     1.08290
O59         O  0.09666614  0.82262999  0.03010647    -0.81330
O60         O  0.29632119  0.95368077  0.02583344    -0.81350
O61         O  0.17703379  0.94940905  0.08723100    -0.81360
O62         O  0.21854384  0.80214134  0.49129247    -0.81300
O63         O  0.24271299  0.95722630  0.06525841    -0.81420
O64         O  0.14112233  0.78526464  0.49790668    -0.81340
O65         O  0.24615544  0.89928703  0.99644016    -0.81330
O66         O  0.14493948  0.90375674  0.03275111    -0.81360
C67         C  0.10355894  0.86552638  0.02578869     1.08360
C68         C  0.27171392  0.94394827  0.00328725     1.08250
C69         C  0.22462429  0.97078654  0.08529054     1.08390
C70         C  0.17494500  0.78618486  0.48213517     1.08260
O71         O  0.16262722  0.74541898  0.04703240    -0.81330
O72         O  0.26637107  0.88866392  0.10023282    -0.81400
O73         O  0.10902545  0.85246581  0.08174649    -0.81340
O74         O  0.31499003  0.86415118  0.00993083    -0.81320
O75         O  0.31691147  0.88286824  0.05538744    -0.81370
O76         O  0.11721712  0.78715094  0.08139315    -0.81340
O77         O  0.24534164  0.79180107  0.04460937    -0.81300
O78         O  0.19214458  0.87729020  0.10728270    -0.81370
Co79       Co  0.13459743  0.78930350  0.04012148     1.51530
Co80       Co  0.27367718  0.91413096  0.06110551     1.51690
Co81       Co  0.17642052  0.89435192  0.06800195     1.51570
Co82       Co  0.24901166  0.84944946  0.02248458     1.51470
O83         O  0.20019370  0.85306392  0.04733398    -1.43260
C84         C  0.20581186  0.74970818  0.04742670     1.08290
C85         C  0.23049568  0.87744700  0.11678751     1.08380
C86         C  0.09454574  0.80968372  0.08994069     1.08320
C87         C  0.33687655  0.87355066  0.03406312     1.08290
O88         O  0.11632407  0.76052303  0.28125327    -0.81330
O89         O  0.35277403  0.88645822  0.30154219    -0.81350
O90         O  0.20220255  0.84833432  0.24983779    -0.81360
O91         O  0.27197491  0.79462550  0.31252025    -0.81300
O92         O  0.27669809  0.85366315  0.25358297    -0.81420
O93         O  0.19176236  0.75188991  0.30311551    -0.81340
O94         O  0.33902851  0.85987829  0.34672966    -0.81330
O95         O  0.11211229  0.82682884  0.26906785    -0.81360
C96         C  0.09355444  0.77976289  0.26821886     1.08360
C97         C  0.36720031  0.87459456  0.32513641     1.08250
C98         C  0.23870059  0.84582291  0.23863905     1.08390
C99         C  0.23234942  0.75367316  0.30858436     1.08260
O100        O  0.16821414  0.78393030  0.34108195    -0.81330
O101        O  0.26900418  0.93676082  0.26097963    -0.81400
O102        O  0.14360066  0.86769679  0.32257586    -0.81340
O103        O  0.30467288  0.92297888  0.34994962    -0.81320
O104        O  0.32949514  0.96445627  0.30960409    -0.81370
O105        O  0.13529982  0.79742690  0.33114069    -0.81340
O106        O  0.24328148  0.82402398  0.36268632    -0.81300
O107        O  0.20036905  0.92837016  0.28008594    -0.81370
Co108      Co  0.18089032  0.80726108  0.29833009     1.51530
Co109      Co  0.30214248  0.90702016  0.28305211     1.51690
Co110      Co  0.17746519  0.85804233  0.28816029     1.51570
Co111      Co  0.28489806  0.85915971  0.33046690     1.51470
O112        O  0.24014919  0.87031370  0.30890027    -1.43260
C113        C  0.19706248  0.79359815  0.36332227     1.08290
C114        C  0.24296616  0.95544427  0.26894660     1.08380
C115        C  0.12044133  0.82798637  0.33606678     1.08320
C116        C  0.32617966  0.96369578  0.33659306     1.08290
O117        O  0.17936292  0.52398203  0.03621623    -0.81330
O118        O  0.30040329  0.44732503  0.03718986    -0.81350
O119        O  0.28933363  0.55226432  0.10195958    -0.81360
O120        O  0.21032325  0.42323213  0.50991885    -0.81300
O121        O  0.32391559  0.53366214  0.06603079    -0.81420
O122        O  0.17537072  0.46620612  0.99518863    -0.81340
O123        O  0.23814330  0.37201722  0.03919465    -0.81330
O124        O  0.21330012  0.55285298  0.07772288    -0.81360
C125        C  0.19717686  0.55850852  0.05437132     1.08360
C126        C  0.28239574  0.40225000  0.03089094     1.08250
C127        C  0.32275924  0.56531268  0.08233357     1.08390
C128        C  0.20274767  0.44712553  0.49034409     1.08260
O129        O  0.11957607  0.40090993  0.03166414    -0.81330
O130        O  0.29501153  0.47991396  0.11991856    -0.81400
O131        O  0.14088887  0.45631437  0.09947694    -0.81340
O132        O  0.17727645  0.35878902  0.08687906    -0.81320
O133        O  0.26067021  0.39406649  0.09072505    -0.81370
O134        O  0.12087618  0.43089305  0.05402774    -0.81340
O135        O  0.13476625  0.33787866  0.03102041    -0.81300
O136        O  0.21596487  0.45440651  0.12680499    -0.81370
Co137      Co  0.19121750  0.46629913  0.03465978     1.51530
Co138      Co  0.29163000  0.46420917  0.07731245     1.51690
Co139      Co  0.21461482  0.50022568  0.09977965     1.51570
Co140      Co  0.18807432  0.39381849  0.05003536     1.51470
O141        O  0.22471274  0.45956777  0.06932318    -1.43260
C142        C  0.10600602  0.35503339  0.02502021     1.08290
C143        C  0.25718549  0.46270434  0.13647133     1.08380
C144        C  0.10854447  0.43114463  0.08062692     1.08320
C145        C  0.21632720  0.35974734  0.09707082     1.08290
O146        O  0.24209657  0.55086774  0.30452958    -0.81330
O147        O  0.34232879  0.44645486  0.31233256    -0.81350
O148        O  0.30008826  0.54347292  0.35506228    -0.81360
O149        O  0.23871566  0.41361838  0.27393082    -0.81300
O150        O  0.32132771  0.52451444  0.31340571    -0.81420
O151        O  0.24151796  0.48634721  0.26551541    -0.81340
O152        O  0.27086104  0.40195400  0.28811219    -0.81330
O153        O  0.21281095  0.54523123  0.34703604    -0.81360
C154        C  0.23123149  0.57010105  0.32463763     1.08360
C155        C  0.31800300  0.41574184  0.29249168     1.08250
C156        C  0.32978131  0.55512182  0.33352962     1.08390
C157        C  0.24720078  0.45062645  0.25751820     1.08260
O158        O  0.14325724  0.42041455  0.27829555    -0.81330
O159        O  0.31459065  0.47401283  0.36512871    -0.81400
O160        O  0.15551037  0.44588501  0.36325725    -0.81340
O161        O  0.20752042  0.32723744  0.31518644    -0.81320
O162        O  0.26120927  0.38631256  0.34313714    -0.81370
O163        O  0.13747444  0.47170530  0.32300424    -0.81340
O164        O  0.15316165  0.35754704  0.28855838    -0.81300
O165        O  0.23669390  0.44098114  0.37599094    -0.81370
Co166      Co  0.19379734  0.48208492  0.29468073     1.51530
Co167      Co  0.28812396  0.45560161  0.32445907     1.51690
Co168      Co  0.22614012  0.49152315  0.35959339     1.51570
Co169      Co  0.21071240  0.39074622  0.31477588     1.51470
O170        O  0.22430717  0.45799700  0.32322514    -1.43260
C171        C  0.13183888  0.37642580  0.27487631     1.08290
C172        C  0.28057517  0.45691888  0.38399954     1.08380
C173        C  0.12422880  0.44797943  0.34688354     1.08320
C174        C  0.24017798  0.34133486  0.33469191     1.08290
O175        O  0.43914156  0.34220865  0.16746996    -0.81330
O176        O  0.36783837  0.12565666  0.18403861    -0.81350
O177        O  0.51984583  0.26487548  0.20163656    -0.81360
O178        O  0.35308878  0.19506666  0.13805217    -0.81300
O179        O  0.47250578  0.18571926  0.18782726    -0.81420
O180        O  0.41923731  0.26488400  0.13214226    -0.81340
O181        O  0.33185387  0.15741473  0.15679197    -0.81330
O182        O  0.49717808  0.32395460  0.17251375    -0.81360
C183        C  0.48494779  0.35587323  0.16932151     1.08360
C184        C  0.33883324  0.12183531  0.16407809     1.08250
C185        C  0.51485940  0.22513966  0.19036215     1.08390
C186        C  0.39087242  0.22304378  0.12233649     1.08260
O187        O  0.34328421  0.28764411  0.14680574    -0.81330
O188        O  0.46338079  0.20680711  0.24319311    -0.81400
O189        O  0.43532617  0.32761127  0.21989723    -0.81340
O190        O  0.30317898  0.16019713  0.20497384    -0.81320
O191        O  0.36430646  0.18084535  0.23442470    -0.81370
O192        O  0.35955902  0.28056558  0.20367559    -0.81340
O193        O  0.28482891  0.21742794  0.16437016    -0.81300
O194        O  0.45543646  0.27031593  0.24808422    -0.81370
Co195      Co  0.38797090  0.27037958  0.16767400     1.51530
Co196      Co  0.41556656  0.17814658  0.21061997     1.51690
Co197      Co  0.47468435  0.29394397  0.20935898     1.51570
Co198      Co  0.34655809  0.21818185  0.17880073     1.51470
O199        O  0.41884253  0.23669590  0.19018337    -1.43260
C200        C  0.29673066  0.25708779  0.15062890     1.08290
C201        C  0.46597287  0.24047018  0.25863942     1.08380
C202        C  0.38900786  0.31289361  0.22095891     1.08320
C203        C  0.31970883  0.15243133  0.22801198     1.08290
O204        O  0.52940174  0.35917056  0.43470798    -0.81330
O205        O  0.44672233  0.17483265  0.40790932    -0.81350
O206        O  0.53330896  0.28845172  0.47965957    -0.81360
O207        O  0.41240293  0.23547148  0.38495235    -0.81300
O208        O  0.52717468  0.24629202  0.44013667    -0.81420
O209        O  0.48602380  0.29876128  0.39181053    -0.81340
O210        O  0.36762672  0.15497161  0.40730300    -0.81330
O211        O  0.51058609  0.36270379  0.47840591    -0.81360
C212        C  0.54070641  0.38229073  0.45802226     1.08360
C213        C  0.40183434  0.14664142  0.39925617     1.08250
C214        C  0.55364890  0.27897142  0.45803763     1.08390
C215        C  0.45655835  0.26428757  0.37630070     1.08260
O216        O  0.38601509  0.28965234  0.40461233    -0.81330
O217        O  0.47277444  0.20068982  0.49294980    -0.81400
O218        O  0.40554809  0.29582744  0.48605144    -0.81340
O219        O  0.33892163  0.17287890  0.45765159    -0.81320
O220        O  0.39126079  0.14305608  0.45865857    -0.81370
O221        O  0.43019432  0.34874129  0.45113194    -0.81340
O222        O  0.32101934  0.21307308  0.40587882    -0.81300
O223        O  0.41925550  0.22300173  0.49396717    -0.81370
Co224      Co  0.45775935  0.31897533  0.42225533     1.51530
Co225      Co  0.45990815  0.19678760  0.44912337     1.51690
Co226      Co  0.46532349  0.28908768  0.48281367     1.51570
Co227      Co  0.37844291  0.21721090  0.42444539     1.51470
O228        O  0.44413116  0.25490696  0.44437688    -1.43260
C229        C  0.34015730  0.25779044  0.39773053     1.08290
C230        C  0.43976777  0.20423520  0.50718438     1.08380
C231        C  0.40356719  0.33025745  0.47340406     1.08320
C232        C  0.34761295  0.13709018  0.46239946     1.08290
O233        O  0.59945956  0.71803118  0.08093609    -0.81330
O234        O  0.52817675  0.84945119  0.07574169    -0.81350
O235        O  0.66499935  0.85961832  0.12276143    -0.81360
O236        O  0.51938809  0.77153070  0.03653827    -0.81300
O237        O  0.58670539  0.84493654  0.12021271    -0.81420
O238        O  0.53925853  0.76042508  0.08007960    -0.81340
O239        O  0.54506216  0.87001080  0.03206644    -0.81330
O240        O  0.66924973  0.78645861  0.09428799    -0.81360
C241        C  0.64078909  0.73880524  0.09437392     1.08360
C242        C  0.51517467  0.85862354  0.05214444     1.08250
C243        C  0.62283407  0.84707902  0.13454516     1.08390
C244        C  0.50619299  0.74981063  0.06118273     1.08260
O245        O  0.57440674  0.73775958  0.02729232    -0.81330
O246        O  0.66749257  0.93579795  0.10289303    -0.81400
O247        O  0.72013207  0.85784087  0.04610644    -0.81340
O248        O  0.64033832  0.90336590  0.01632266    -0.81320
O249        O  0.62190532  0.93744352  0.05322211    -0.81370
O250        O  0.66386134  0.78120898  0.04394764    -0.81340
O251        O  0.61868823  0.80695765  0.00562964    -0.81300
O252        O  0.71973161  0.92937536  0.07505560    -0.81370
Co253      Co  0.60341410  0.77472820  0.06496403     1.51530
Co254      Co  0.60123447  0.88758493  0.08607552     1.51690
Co255      Co  0.68820039  0.85814941  0.08225718     1.51570
Co256      Co  0.58440016  0.83776165  0.02478533     1.51470
O257        O  0.62107526  0.84417013  0.06214440    -1.43260
C258        C  0.59527163  0.76075797  0.50448609     1.08290
C259        C  0.71195409  0.95217066  0.09434641     1.08380
C260        C  0.70623823  0.81562753  0.03707114     1.08320
C261        C  0.64284938  0.94097972  0.02871377     1.08290
O262        O  0.69978356  0.78056866  0.33408053    -0.81330
O263        O  0.68799734  0.92748345  0.34049352    -0.81350
O264        O  0.74702085  0.94606469  0.29533044    -0.81360
O265        O  0.64316656  0.80353606  0.38687834    -0.81300
O266        O  0.67446338  0.94339840  0.28785639    -0.81420
O267        O  0.61194398  0.73236845  0.36617972    -0.81340
O268        O  0.64806672  0.89173707  0.38004914    -0.81330
O269        O  0.75121282  0.85970709  0.32282817    -0.81360
C270        C  0.74375558  0.81729757  0.33111283     1.08360
C271        C  0.68245271  0.92832970  0.36696101     1.08250
C272        C  0.72218921  0.96726005  0.28690481     1.08390
C273        C  0.62564764  0.75805142  0.38878559     1.08260
O274        O  0.55825570  0.73323665  0.31726376    -0.81330
O275        O  0.60612687  0.84508466  0.27594862    -0.81400
O276        O  0.71348679  0.83932939  0.28177551    -0.81340
O277        O  0.55117185  0.84110119  0.35265204    -0.81320
O278        O  0.58883019  0.89281984  0.31744132    -0.81370
O279        O  0.64293957  0.76942519  0.28452289    -0.81340
O280        O  0.54238723  0.75300414  0.36000518    -0.81300
O281        O  0.68293122  0.86783709  0.26801339    -0.81370
Co282      Co  0.62867562  0.75760803  0.32520303     1.51530
Co283      Co  0.64596666  0.88289560  0.30903689     1.51690
Co284      Co  0.69900343  0.87933726  0.31150405     1.51570
Co285      Co  0.59935723  0.82299308  0.36772367     1.51470
O286        O  0.63419924  0.82387404  0.33042354    -1.43260
C287        C  0.52810336  0.72633874  0.33738671     1.08290
C288        C  0.63922990  0.85276203  0.25793252     1.08380
C289        C  0.68765391  0.79313065  0.27596494     1.08320
C290        C  0.55165628  0.86938986  0.33352581     1.08290
O291        O  0.87209051  0.34376937  0.18855116    -0.81330
O292        O  0.74418867  0.13435564  0.20481112    -0.81350
O293        O  0.72511503  0.24222408  0.14636966    -0.81360
O294        O  0.84240317  0.21722061  0.23077476    -0.81300
O295        O  0.70472869  0.18997365  0.18206173    -0.81420
O296        O  0.82529275  0.27421086  0.22593478    -0.81340
O297        O  0.82529369  0.16907528  0.21525182    -0.81330
O298        O  0.79825363  0.31814742  0.17007425    -0.81360
C299        C  0.83372565  0.34832605  0.18499541     1.08360
C300        C  0.78003078  0.13467806  0.21838557     1.08250
C301        C  0.69639685  0.21871391  0.16738893     1.08390
C302        C  0.82432407  0.24253361  0.24193805     1.08260
O303        O  0.92810481  0.30517423  0.21529000    -0.81330
O304        O  0.72812768  0.17158743  0.12506426    -0.81400
O305        O  0.87609630  0.31805393  0.13303012    -0.81340
O306        O  0.84985940  0.15726576  0.16953617    -0.81320
O307        O  0.77509939  0.12798362  0.14922180    -0.81370
O308        O  0.91025683  0.28600662  0.15941803    -0.81340
O309        O  0.92658090  0.23574662  0.20318802    -0.81300
O310        O  0.80357890  0.22985903  0.11510477    -0.81370
Co311      Co  0.86583088  0.27711443  0.19303134     1.51530
Co312      Co  0.74241279  0.16101385  0.16627605     1.51690
Co313      Co  0.80145931  0.27438325  0.14240454     1.51570
Co314      Co  0.86231537  0.22278154  0.18710231     1.51470
O315        O  0.80436260  0.22959517  0.17173284    -1.43260
C316        C  0.94882779  0.27817653  0.21522573     1.08290
C317        C  0.76182706  0.19721050  0.10690783     1.08380
C318        C  0.91349024  0.31247851  0.13844465     1.08320
C319        C  0.81297182  0.12448917  0.15494562     1.08290
O320        O  0.88183598  0.37772153  0.45964880    -0.81330
O321        O  0.72400506  0.15113252  0.45575814    -0.81350
O322        O  0.75694100  0.29507529  0.40197315    -0.81360
O323        O  0.78726291  0.22883382  0.97663441    -0.81300
O324        O  0.72723088  0.24313702  0.43785213    -0.81420
O325        O  0.85295168  0.29580750  0.48751454    -0.81340
O326        O  0.78937858  0.14522606  0.47119423    -0.81330
O327        O  0.85358041  0.37056117  0.41560472    -0.81360
C328        C  0.87478476  0.39709513  0.43787135     1.08360
C329        C  0.74275996  0.12877398  0.47055850     1.08250
C330        C  0.72931666  0.27878335  0.42432256     1.08390
C331        C  0.81441378  0.25758035  0.99531457     1.08260
O332        O  0.91678732  0.30783075  0.45241276    -0.81330
O333        O  0.73262962  0.21420562  0.37765126    -0.81400
O334        O  0.89565425  0.32282994  0.38425112    -0.81340
O335        O  0.82198617  0.15805596  0.41891102    -0.81320
O336        O  0.75286859  0.14712925  0.39918026    -0.81370
O337        O  0.92338537  0.33790681  0.42857917    -0.81340
O338        O  0.88149352  0.22821675  0.46411080    -0.81300
O339        O  0.81076240  0.25140077  0.36713260    -0.81370
Co340      Co  0.85364457  0.31196170  0.44616304     1.51530
Co341      Co  0.74273804  0.19686005  0.41862079     1.51690
Co342      Co  0.82711870  0.30437122  0.39402483     1.51570
Co343      Co  0.81148247  0.19953265  0.44767754     1.51470
O344        O  0.82058615  0.25120825  0.42278895    -1.43260
C345        C  0.91956231  0.27159623  0.46334252     1.08290
C346        C  0.76699610  0.22583078  0.35914588     1.08380
C347        C  0.93166296  0.34214348  0.40149887     1.08320
C348        C  0.78187925  0.13090048  0.40485931     1.08290
C349        C  0.79552573  0.19402521  0.28732867    -0.10340
C350        C  0.80189604  0.23435268  0.27131882     0.05850
C351        C  0.78693674  0.26628361  0.28408794    -0.04110
C352        C  0.76555718  0.25664510  0.31152420    -0.08560
C353        C  0.76086101  0.21718417  0.32789098     0.04970
C354        C  0.77537145  0.18527432  0.31496702    -0.03590
Br355      Br  0.77421544  0.13192142  0.33493315    -0.03280
H356        H  0.80898056  0.17053461  0.27901541     0.08880
H357        H  0.75841483  0.28383154  0.32152129     0.06900
Br358      Br  0.80295223  0.32882042  0.26828202    -0.03710
C359        C  0.75110035  0.23835049  0.06645547    -0.10340
C360        C  0.75409111  0.19760899  0.07647369     0.05850
C361        C  0.77638547  0.17737495  0.05916133    -0.04110
C362        C  0.79965419  0.20028596  0.03380821    -0.08560
C363        C  0.79979120  0.24289056  0.02475725     0.04970
C364        C  0.77380755  0.26107187  0.04072189    -0.03590
Br365      Br  0.77002633  0.31751275  0.02870727    -0.03280
H366        H  0.73554958  0.25551606  0.08003346     0.08880
H367        H  0.81754047  0.18455834  0.02100067     0.06900
Br368      Br  0.77893148  0.12048943  0.07069081    -0.03710
C369        C  0.78875779  0.05686239  0.38766647    -0.10340
C370        C  0.76041392  0.07699128  0.39884711     0.05850
C371        C  0.70772227  0.04463988  0.40256692    -0.04110
C372        C  0.68539838  0.99517078  0.39515000    -0.08560
C373        C  0.71248918  0.97618001  0.38185036     0.04970
C374        C  0.76485627  0.00720731  0.37835623    -0.03590
Br375      Br  0.80472657  0.98340016  0.36061554    -0.03280
H376        H  0.82866243  0.08029630  0.38446404     0.08880
H377        H  0.64514709  0.97218971  0.39747022     0.06900
Br378      Br  0.66043949  0.06366481  0.41587028    -0.03710
C379        C  0.78954933  0.03751293  0.26085838    -0.10340
C380        C  0.74492617  0.01767678  0.27614434     0.05850
C381        C  0.71719806  0.04283535  0.27677014    -0.04110
C382        C  0.72964325  0.08177499  0.25826814    -0.08560
C383        C  0.77146114  0.09853029  0.24066940     0.04970
C384        C  0.80359426  0.07827966  0.24344500    -0.03590
Br385      Br  0.86226777  0.09784422  0.22050486    -0.03280
H386        H  0.81137615  0.01902688  0.26061133     0.08880
H387        H  0.70643231  0.09877080  0.25744020     0.06900
Br388      Br  0.66140354  0.02586465  0.30201973    -0.03710
C389        C  0.74306751  0.99068109  0.14028905    -0.10340
C390        C  0.75318790  0.99126679  0.11143227     0.05850
C391        C  0.79787327  0.03106667  0.10070111    -0.04110
C392        C  0.82539544  0.07365202  0.11789383    -0.08560
C393        C  0.80780215  0.07686057  0.14524359     0.04970
C394        C  0.76715424  0.03301985  0.15649807    -0.03590
Br395      Br  0.72838077  0.02876656  0.18903421    -0.03280
H396        H  0.71070271  0.95883023  0.14933396     0.08880
H397        H  0.85617431  0.10620737  0.10844330     0.06900
Br398      Br  0.81931899  0.03076487  0.06234817    -0.03710
C399        C  0.65823813  0.02738958  0.02238145    -0.10340
C400        C  0.66690323  0.98906666  0.01331050     0.05850
C401        C  0.69691140  0.99722171  0.48875511    -0.04110
C402        C  0.71988877  0.04294459  0.47560032    -0.08560
C403        C  0.71159117  0.08089115  0.48460136     0.04970
C404        C  0.67946022  0.07269841  0.00781411    -0.03590
Br405      Br  0.66463315  0.12223969  0.02051605    -0.03280
H406        H  0.63435662  0.02199108  0.04060170     0.08880
H407        H  0.74493920  0.04902186  0.45787311     0.06900
Br408      Br  0.70904690  0.94899079  0.47078290    -0.03710
C409        C  0.64055407  0.74309089  0.46655434    -0.10340
C410        C  0.59488448  0.73701761  0.47697867     0.05850
C411        C  0.55563406  0.72439283  0.45748849    -0.04110
C412        C  0.56419206  0.72373052  0.42810550    -0.08560
C413        C  0.61189785  0.73621391  0.41761080     0.04970
C414        C  0.64926634  0.74297831  0.43713024    -0.03590
Br415      Br  0.71420665  0.75755254  0.42391168    -0.03280
H416        H  0.67103676  0.75241530  0.48111831     0.08880
H417        H  0.53504095  0.71889417  0.41340162     0.06900
Br418      Br  0.49240691  0.71600813  0.46959866    -0.03710
C419        C  0.63460271  0.81237666  0.21118413    -0.10340
C420        C  0.62923604  0.84762919  0.22676725     0.05850
C421        C  0.61824795  0.88023372  0.21182908    -0.04110
C422        C  0.61258496  0.87682923  0.18204508    -0.08560
C423        C  0.61928520  0.84234522  0.16627548     0.04970
C424        C  0.63008596  0.80975047  0.18138522    -0.03590
Br425      Br  0.63864192  0.76025853  0.16301348    -0.03280
H426        H  0.64308962  0.78710151  0.22215339     0.08880
H427        H  0.60609937  0.90342907  0.17096576     0.06900
Br428      Br  0.61676996  0.93414279  0.23031498    -0.03710
C429        C  0.62553859  0.31181488  0.42451219    -0.10340
C430        C  0.60875047  0.30118468  0.45306360     0.05850
C431        C  0.63983510  0.29557650  0.47274653    -0.04110
C432        C  0.68169675  0.29275508  0.46312378    -0.08560
C433        C  0.69459172  0.29672770  0.43394789     0.04970
C434        C  0.66782332  0.30975032  0.41485887    -0.03590
Br435      Br  0.68201010  0.31770614  0.37474987    -0.03280
H436        H  0.60249325  0.31668338  0.40890832     0.08880
H437        H  0.70232898  0.28397481  0.47837490     0.06900
Br438      Br  0.62378926  0.28599182  0.51239772    -0.03710
C439        C  0.57735043  0.20184061  0.20325648    -0.10340
C440        C  0.56059594  0.22348981  0.18344312     0.05850
C441        C  0.58963230  0.24592716  0.15903861    -0.04110
C442        C  0.63367598  0.24411662  0.15407250    -0.08560
C443        C  0.65038166  0.22152068  0.17370175     0.04970
C444        C  0.62207428  0.20148212  0.19907744    -0.03590
Br445      Br  0.64277738  0.17615511  0.23038427    -0.03280
H446        H  0.55610031  0.18633981  0.22266390     0.08880
H447        H  0.65491595  0.26059225  0.13482317     0.06900
Br448      Br  0.57076891  0.27963239  0.13216214    -0.03710
C449        C  0.50363059  0.29248597  0.30074858    -0.10340
C450        C  0.47843145  0.24497584  0.28892600     0.05850
C451        C  0.45645686  0.20411143  0.30706419    -0.04110
C452        C  0.45261705  0.21156021  0.33593706    -0.08560
C453        C  0.47186541  0.25887474  0.34739625     0.04970
C454        C  0.50118912  0.29984999  0.32986497    -0.03590
Br455      Br  0.53404658  0.36679355  0.34317229    -0.03280
H456        H  0.52234012  0.32429506  0.28701840     0.08880
H457        H  0.43230024  0.17985617  0.34916028     0.06900
Br458      Br  0.42624598  0.13753754  0.29375944    -0.03710
C459        C  0.44606696  0.20911402  0.08831238    -0.10340
C460        C  0.40033081  0.20759402  0.09420825     0.05850
C461        C  0.36522118  0.19455301  0.07233132    -0.04110
C462        C  0.37760757  0.18746545  0.04480654    -0.08560
C463        C  0.42508279  0.19349111  0.03787257     0.04970
C464        C  0.45830234  0.20136247  0.06041757    -0.03590
Br465      Br  0.52065159  0.20350132  0.05421056    -0.03280
H466        H  0.47262179  0.21725724  0.10534911     0.08880
H467        H  0.35130223  0.18177893  0.02805290     0.06900
Br468      Br  0.30265456  0.19307403  0.07799060    -0.03710
C469        C  0.41674423  0.60328657  0.31663906    -0.10340
C470        C  0.37833494  0.60175643  0.33350072     0.05850
C471        C  0.38905433  0.64279199  0.35095639    -0.04110
C472        C  0.43781031  0.68338307  0.35161616    -0.08560
C473        C  0.47646284  0.68402785  0.33521598     0.04970
C474        C  0.46511674  0.64309143  0.31747924    -0.03590
Br475      Br  0.51333372  0.63522472  0.29531333    -0.03280
H476        H  0.40985856  0.57212273  0.30338287     0.08880
H477        H  0.44553032  0.71454633  0.36508875     0.06900
Br478      Br  0.33915775  0.64689902  0.37361023    -0.03710
C479        C  0.31340310  0.33447070  0.34606745    -0.10340
C480        C  0.26113210  0.31140819  0.34619674     0.05850
C481        C  0.23381991  0.26667877  0.36098223    -0.04110
C482        C  0.25963902  0.24825436  0.37713979    -0.08560
C483        C  0.31256482  0.27405368  0.37859809     0.04970
C484        C  0.33912387  0.31660699  0.36154943    -0.03590
Br485      Br  0.41082833  0.35401132  0.35751503    -0.03280
H486        H  0.33521048  0.36847577  0.33463089     0.08880
H487        H  0.23832136  0.21491137  0.38940509     0.06900
Br488      Br  0.16215473  0.23220912  0.36140870    -0.03710
C489        C  0.40504907  0.38687495  0.24914982    -0.10340
C490        C  0.37142846  0.33789860  0.24077956     0.05850
C491        C  0.32179993  0.31502413  0.25080287    -0.04110
C492        C  0.30618399  0.34177878  0.26742397    -0.08560
C493        C  0.33915635  0.39107904  0.27511952     0.04970
C494        C  0.38938958  0.41344417  0.26630935    -0.03590
Br495      Br  0.43709383  0.48049929  0.27545352    -0.03280
H496        H  0.44346838  0.40517401  0.24169089     0.08880
H497        H  0.26764831  0.32337229  0.27463450     0.06900
Br498      Br  0.27343660  0.24735161  0.24315193    -0.03710
C499        C  0.03292707  0.34709294  0.22013653    -0.10340
C500        C  0.99898532  0.29826224  0.22687638     0.05850
C501        C  0.01330241  0.27193560  0.24515849    -0.04110
C502        C  0.05959771  0.29683992  0.25896776    -0.08560
C503        C  0.09102055  0.34759398  0.25480514     0.04970
C504        C  0.07883289  0.37188255  0.23355837    -0.03590
Br505      Br  0.12127391  0.43938938  0.22213441    -0.03280
H506        H  0.02293788  0.36668133  0.20487949     0.08880
H507        H  0.06907651  0.27748366  0.27461795     0.06900
Br508      Br  0.96935259  0.20422350  0.25451299    -0.03710
C509        C  0.99278711  0.34899104  0.36541292    -0.10340
C510        C  0.98230708  0.36970121  0.38905252     0.05850
C511        C  0.01765450  0.41811273  0.39736676    -0.04110
C512        C  0.06180446  0.44502242  0.38141211    -0.08560
C513        C  0.07236669  0.42388826  0.35778082     0.04970
C514        C  0.03811540  0.37450956  0.35090841    -0.03590
Br515      Br  0.05357200  0.33648372  0.32562980    -0.03280
H516        H  0.96646112  0.31145345  0.35913974     0.08880
H517        H  0.08916576  0.48181718  0.38830057     0.06900
Br518      Br  0.00794372  0.44924895  0.43007500    -0.03710
C519        C  0.36755446  0.64634785  0.05675552    -0.10340
C520        C  0.36483734  0.61677022  0.07998152     0.05850
C521        C  0.40661028  0.63354803  0.09785797    -0.04110
C522        C  0.45047195  0.67779171  0.09188619    -0.08560
C523        C  0.45484625  0.70694790  0.06785228     0.04970
C524        C  0.41157307  0.69137209  0.05087454    -0.03590
Br525      Br  0.40925101  0.72967757  0.01994486    -0.03280
H526        H  0.33562291  0.63377912  0.04269662     0.08880
H527        H  0.48224091  0.68799587  0.10572926     0.06900
Br528      Br  0.40729604  0.59478966  0.12924487    -0.03710
C529        C  0.24370972  0.33996882  0.14078276    -0.10340
C530        C  0.21450718  0.32148713  0.11633395     0.05850
C531        C  0.20307720  0.27420947  0.10661999    -0.04110
C532        C  0.22591213  0.24962333  0.11972103    -0.08560
C533        C  0.25990295  0.27206318  0.14236645     0.04970
C534        C  0.26605286  0.31627013  0.15373435    -0.03590
Br535      Br  0.31124160  0.35139620  0.18417798    -0.03280
H536        H  0.25571719  0.37685758  0.14750116     0.08880
H537        H  0.22092236  0.21571738  0.11051046     0.06900
Br538      Br  0.16489304  0.24676559  0.07255243    -0.03710
C539        C  0.33482173  0.40353318  0.48868691    -0.10340
C540        C  0.31344013  0.38466283  0.01556624     0.05850
C541        C  0.32376291  0.34995797  0.02816735    -0.04110
C542        C  0.35171835  0.33265782  0.01367807    -0.08560
C543        C  0.37239776  0.35018962  0.48652675     0.04970
C544        C  0.36403272  0.38681768  0.47414736    -0.03830
Br545      Br  0.39152462  0.41606326  0.43784837    -0.03280
H546        H  0.32892838  0.43151844  0.47896891     0.08880
H547        H  0.35859636  0.30608816  0.02446840     0.06900
Br548      Br  0.30671633  0.32914530  0.06673769    -0.03710
C549        C  0.28816160  0.50341981  0.42637712    -0.10340
C550        C  0.28746329  0.46165247  0.41469059     0.05850
C551        C  0.26331415  0.41724014  0.42994980    -0.04110
C552        C  0.23472585  0.41323329  0.45391331    -0.08560
C553        C  0.22999712  0.45325838  0.46348015     0.04970
C554        C  0.25893651  0.49938343  0.45031630    -0.03590
Br555      Br  0.25955943  0.55759008  0.46382509    -0.03280
H556        H  0.30604017  0.53782094  0.41472963     0.08880
H557        H  0.21476083  0.37803197  0.46466251     0.06900
Br558      Br  0.26011086  0.35837770  0.41557613    -0.03710
C559        C  0.30207129  0.48722826  0.18339935    -0.10340
C560        C  0.25983326  0.45456623  0.16736424     0.05850
C561        C  0.21774751  0.41668202  0.18179828    -0.04110
C562        C  0.21847649  0.41276079  0.21123068    -0.08560
C563        C  0.25810973  0.44826088  0.22729638     0.04970
C564        C  0.30081308  0.48512844  0.21334953    -0.03590
Br565      Br  0.35700640  0.53354975  0.23452570    -0.03280
H566        H  0.33456427  0.51640203  0.17283861     0.08880
H567        H  0.18551329  0.38423780  0.22185333     0.06900
Br568      Br  0.15643212  0.36963785  0.16338889    -0.03710
C569        C  0.96679507  0.27529753  0.00750685    -0.10340
C570        C  0.96711399  0.28246921  0.47790866     0.05850
C571        C  0.01380765  0.30594325  0.46385567    -0.04110
C572        C  0.05857280  0.32824579  0.47954350    -0.08560
C573        C  0.05814596  0.32469058  0.00934910     0.04970
C574        C  0.01185480  0.29484875  0.02302396    -0.03590
Br575      Br  0.00840094  0.27778882  0.06225704    -0.03280
H576        H  0.93139981  0.25552335  0.01872733     0.08880
H577        H  0.09398602  0.34837483  0.46836962     0.06900
Br578      Br  0.01855614  0.30301269  0.42346703    -0.03710
C579        C  0.05007900  0.36261064  0.11229039    -0.10340
C580        C  0.05621637  0.39751215  0.09164476     0.05850
C581        C  0.01411809  0.40243173  0.08529944    -0.04110
C582        C  0.96815074  0.37416897  0.10015000    -0.08560
C583        C  0.96208375  0.33936883  0.12128580     0.04970
C584        C  0.00403240  0.33285476  0.12617461    -0.03590
Br585      Br  0.00184610  0.28193812  0.14971157    -0.03280
H586        H  0.08152874  0.35748107  0.11718649     0.08880
H587        H  0.93722298  0.38017312  0.09538242     0.06900
Br588      Br  0.01854873  0.44930224  0.05777838    -0.03710
C589        C  0.44059729  0.87484376  0.30237613    -0.10340
C590        C  0.41606747  0.87631907  0.32728602     0.05850
C591        C  0.43775432  0.87678732  0.35411704    -0.04110
C592        C  0.48304674  0.87703574  0.35524015    -0.08560
C593        C  0.50700262  0.87478700  0.33043527     0.04970
C594        C  0.48486290  0.87264144  0.30379218    -0.03590
Br595      Br  0.50846895  0.85898739  0.26912590    -0.03280
H596        H  0.42386174  0.87257684  0.28175186     0.08880
H597        H  0.49907905  0.87754914  0.37585916     0.06900
Br598      Br  0.40841506  0.87522125  0.39074328    -0.03710
C599        C  0.27304648  0.70211551  0.30211934    -0.10340
C600        C  0.23234367  0.70662405  0.31181634     0.05850
C601        C  0.19212198  0.66585372  0.32560394    -0.04110
C602        C  0.19434381  0.62323367  0.33062520    -0.08560
C603        C  0.23442607  0.61833731  0.32071086     0.04970
C604        C  0.27354094  0.65781908  0.30552831    -0.03590
Br605      Br  0.32830544  0.65375519  0.28882991    -0.03280
H606        H  0.30387684  0.73263541  0.29120274     0.08880
H607        H  0.16335541  0.59278794  0.34152992     0.06900
Br608      Br  0.13280034  0.66482526  0.33908495    -0.03710
C609        C  0.22971793  0.02795353  0.26157342    -0.10340
C610        C  0.26179040  0.00768716  0.26194825     0.05850
C611        C  0.31257625  0.03779470  0.25391978    -0.04110
C612        C  0.32903800  0.08491562  0.24466265    -0.08560
C613        C  0.29686658  0.10409664  0.24191726     0.04970
C614        C  0.24690348  0.07599443  0.25114038    -0.03590
Br615      Br  0.20101335  0.10018438  0.24781304    -0.03280
H616        H  0.19082694  0.00567019  0.26778130     0.08880
H617        H  0.36776939  0.10607668  0.23792867     0.06900
Br618      Br  0.36355704  0.01893500  0.25259622    -0.03710
C619        C  0.32705788  0.04155781  0.34732621    -0.10340
C620        C  0.34747846  0.01111855  0.35206288     0.05850
C621        C  0.39007912  0.02837598  0.36961967    -0.04110
C622        C  0.40941743  0.07393376  0.38368410    -0.08560
C623        C  0.38704855  0.10318724  0.38035219     0.04970
C624        C  0.34616039  0.08699919  0.36120098    -0.03590
Br625      Br  0.31564501  0.12583322  0.35183820    -0.03280
H626        H  0.29579376  0.02976011  0.33281389     0.08880
H627        H  0.44100564  0.08574851  0.39791552     0.06900
Br628      Br  0.42467143  0.99232632  0.37382936    -0.03710
C629        C  0.44253774  0.86397436  0.07076935    -0.10340
C630        C  0.46781378  0.85896494  0.04740438     0.05850
C631        C  0.44949102  0.85856234  0.01953926    -0.04110
C632        C  0.40681835  0.86283057  0.01587633    -0.08560
C633        C  0.38198149  0.86887188  0.03920695     0.04970
C634        C  0.40076270  0.86978075  0.06710269    -0.03590
Br635      Br  0.37306518  0.87890293  0.10194107    -0.03280
H636        H  0.45637526  0.86506879  0.09211726     0.08880
H637        H  0.39341549  0.86209296  0.99446330     0.06900
Br638      Br  0.47965293  0.85202141  0.98493562    -0.03710
C639        C  0.24150491  0.64990007  0.06210536    -0.10340
C640        C  0.20114721  0.60777045  0.04947711     0.05850
C641        C  0.16475486  0.61403846  0.03496095    -0.04110
C642        C  0.16771240  0.66038490  0.03479084    -0.08560
C643        C  0.20714266  0.70223927  0.04828964     0.04970
C644        C  0.24514216  0.69654852  0.06126650    -0.03590
Br645      Br  0.30133657  0.74990302  0.07963183    -0.03280
H646        H  0.27042163  0.64644958  0.07317031     0.08880
H647        H  0.13856836  0.66363384  0.02384818     0.06900
Br648      Br  0.10877370  0.56052301  0.01621803    -0.03710
C649        C  0.31572860  0.04903830  0.45104562    -0.10340
C650        C  0.30888518  0.08381998  0.46708116     0.05850
C651        C  0.27672893  0.06598859  0.49078444    -0.04110
C652        C  0.25979408  0.01750977  0.00056469    -0.08560
C653        C  0.27378284  0.98577250  0.48684845     0.04970
C654        C  0.29910110  0.00097689  0.46076316    -0.03590
Br655      Br  0.31811842  0.96010244  0.43979194    -0.03280
H656        H  0.33896171  0.06084553  0.43216912     0.08880
H657        H  0.23825823  0.00572000  0.02010179     0.06900
Br658      Br  0.25685018  0.10652423  0.01103469    -0.03710
C659        C  0.24065842  0.00256063  0.13352169    -0.10340
C660        C  0.25736086  0.00794522  0.10550985     0.05850
C661        C  0.30531628  0.04696195  0.09813897    -0.04110
C662        C  0.33388234  0.08161327  0.11875150    -0.08560
C663        C  0.31546029  0.07785256  0.14642270     0.04970
C664        C  0.26926700  0.03700944  0.15390748    -0.03590
Br665      Br  0.24050744  0.02625669  0.19059073    -0.03280
H666        H  0.20473135  0.97157163  0.13955717     0.08880
H667        H  0.36952866  0.11290537  0.11284096     0.06900
Br668      Br  0.33271561  0.05806458  0.06037202    -0.03710
C669        C  0.18976233  0.75009544  0.43846264    -0.10340
C670        C  0.16573002  0.77314618  0.45164705     0.05850
C671        C  0.14330470  0.79341068  0.43444218    -0.04110
C672        C  0.14989106  0.79523595  0.40502195    -0.08560
C673        C  0.17617321  0.77491222  0.39178744     0.04970
C674        C  0.19510626  0.75085646  0.40876733    -0.03590
Br675      Br  0.23461978  0.72481361  0.39286130    -0.03280
H676        H  0.20772066  0.73475485  0.45139485     0.08880
H677        H  0.14026787  0.81850052  0.39310069     0.06900
Br678      Br  0.11175545  0.82775091  0.44977592    -0.03710
C679        C  0.19441401  0.82554931  0.16104692    -0.10340
C680        C  0.23451137  0.86593087  0.14746434     0.05850
C681        C  0.27840793  0.89510570  0.16366226    -0.04110
C682        C  0.28091438  0.88450189  0.19260681    -0.08560
C683        C  0.24019067  0.84517219  0.20654978     0.04970
C684        C  0.19714229  0.81494337  0.19000974    -0.03590
Br685      Br  0.14154003  0.75750831  0.20574443    -0.03280
H686        H  0.16072851  0.80201430  0.14907630     0.08880
H687        H  0.31366874  0.90953955  0.20483303     0.06900
Br688      Br  0.33403820  0.95386038  0.14851326    -0.03710
C689        C  0.64218695  0.51380660  0.48195655    -0.10340
C690        C  0.68274909  0.52256448  0.46415379     0.05850
C691        C  0.67577375  0.48393480  0.44532932    -0.04110
C692        C  0.62998714  0.43948086  0.44408970    -0.08560
C693        C  0.58908271  0.43078265  0.46130566     0.04970
C694        C  0.59581487  0.46883039  0.48057116    -0.03590
Br695      Br  0.54181280  0.46338672  0.50373868    -0.03280
H696        H  0.64581618  0.54268600  0.49621082     0.08880
H697        H  0.62647320  0.41115894  0.42939246     0.06900
Br698      Br  0.72753927  0.48793589  0.42071204    -0.03710
C699        C  0.90646463  0.52791980  0.45617422    -0.10340
C700        C  0.91583190  0.54942438  0.42906795     0.05850
C701        C  0.91985370  0.52280621  0.40602242    -0.04110
C702        C  0.90849387  0.47401981  0.40970385    -0.08560
C703        C  0.89317351  0.45069242  0.43636683     0.04970
C704        C  0.89469648  0.47901218  0.46011456    -0.03590
Br705      Br  0.87405755  0.45158482  0.49754821    -0.03280
H706        H  0.90290561  0.54725458  0.47398004     0.08880
H707        H  0.90974756  0.45362517  0.39130774     0.06900
Br708      Br  0.93605346  0.55013730  0.36854178    -0.03710
C709        C  0.78928826  0.80139418  0.48319567    -0.10340
C710        C  0.78480236  0.75687821  0.49296417     0.05850
C711        C  0.76246642  0.73826128  0.01970950    -0.04110
C712        C  0.73970820  0.76050285  0.03401055    -0.08560
C713        C  0.73990876  0.80204686  0.02301870     0.04970
C714        C  0.76700901  0.82419229  0.49816290    -0.03590
Br715      Br  0.77033404  0.88180986  0.48243466    -0.03280
H716        H  0.80821003  0.81738450  0.46327427     0.08880
H717        H  0.71993709  0.74394072  0.05355249     0.06900
Br718      Br  0.76164943  0.68351173  0.03883791    -0.03710
C719        C  0.86700075  0.81951235  0.35096700    -0.10340
C720        C  0.84847654  0.76836633  0.35478234     0.05850
C721        C  0.79962769  0.73622454  0.34520454    -0.04110
C722        C  0.76989226  0.75431963  0.33456636    -0.08560
C723        C  0.78486237  0.80480191  0.33521670     0.04970
C724        C  0.83561033  0.83791279  0.34162876    -0.03590
Br725      Br  0.86275522  0.90768174  0.34068914    -0.03280
H726        H  0.90399772  0.84544232  0.35886628     0.08880
H727        H  0.73203966  0.72731852  0.32882182     0.06900
Br728      Br  0.76385998  0.66832077  0.35520050    -0.03710
C729        C  0.01563460  0.75240535  0.38771686    -0.10340
C730        C  0.00491918  0.78664215  0.40037531     0.05850
C731        C  0.02952749  0.83534444  0.38958237    -0.04110
C732        C  0.06751166  0.84936381  0.36865360    -0.08560
C733        C  0.07860081  0.81450282  0.35672480     0.04970
C734        C  0.04937451  0.76484678  0.36551690    -0.03590
Br735      Br  0.04957649  0.70953329  0.34774069    -0.03280
H736        H  0.99529691  0.71406019  0.39398560     0.08880
H737        H  0.08784648  0.88721520  0.36151456     0.06900
Br738      Br  0.01223904  0.88347826  0.40153994    -0.03710
C739        C  0.99831264  0.84210098  0.47877411    -0.10340
C740        C  0.96044642  0.80247575  0.99445545     0.05850
C741        C  0.96819981  0.80135680  0.02401426    -0.04110
C742        C  0.01511623  0.83359643  0.03579232    -0.08560
C743        C  0.05632184  0.86520269  0.01855813     0.04970
C744        C  0.04604301  0.87335824  0.49066946    -0.03590
Br745      Br  0.09650561  0.92647271  0.46875549    -0.03280
H746        H  0.99199008  0.84701655  0.45683495     0.08880
H747        H  0.02131107  0.82834729  0.05785632     0.06900
Br748      Br  0.91774243  0.75496330  0.04943901    -0.03710
C749        C  0.58353978  0.46817668  0.20662949    -0.10340
C750        C  0.60948138  0.49488868  0.18296933     0.05850
C751        C  0.58837727  0.48047218  0.15535260    -0.04110
C752        C  0.54243941  0.43783077  0.15227463    -0.08560
C753        C  0.52163071  0.40646896  0.17542554     0.04970
C754        C  0.54364855  0.42155006  0.20286251    -0.03590
Br755      Br  0.53609110  0.38021050  0.23457035    -0.03280
H756        H  0.60049567  0.47887514  0.22758689     0.08880
H757        H  0.52686604  0.42575384  0.13114177     0.06900
Br758      Br  0.62248623  0.51113859  0.12049178    -0.03710
C759        C  0.87051774  0.43685164  0.18826318    -0.10340
C760        C  0.83019167  0.39091274  0.19450826     0.05850
C761        C  0.78259123  0.38607407  0.20007270    -0.04110
C762        C  0.77470556  0.42563847  0.19537805    -0.08560
C763        C  0.81394228  0.47021332  0.18571457     0.04970
C764        C  0.86283425  0.47617926  0.18318785    -0.03590
Br765      Br  0.92024625  0.53353993  0.16823426    -0.03280
H766        H  0.90684355  0.44071660  0.18361085     0.08880
H767        H  0.73775096  0.42114852  0.19841908     0.06900
Br768      Br  0.72591130  0.32530647  0.21190732    -0.03710
C769        C  0.74706443  0.79457002  0.23865669    -0.10340
C770        C  0.70890758  0.76841541  0.25884549     0.05850
C771        C  0.69389249  0.71887155  0.26425101    -0.04110
C772        C  0.71615758  0.69651240  0.24961557    -0.08560
C773        C  0.75366286  0.72151028  0.22892921     0.04970
C774        C  0.76934241  0.77144035  0.22351021    -0.03590
Br775      Br  0.81995991  0.80962343  0.19596468    -0.03280
H776        H  0.75940043  0.83295935  0.23457125     0.08880
H777        H  0.70371321  0.65858286  0.25509716     0.06900
Br778      Br  0.64571296  0.67900899  0.29277806    -0.03710
C779        C  0.65188475  0.63541941  0.12842829    -0.10340
C780        C  0.70406064  0.65702372  0.12990575     0.05850
C781        C  0.73485092  0.70557241  0.12112308    -0.04110
C782        C  0.71306746  0.73181094  0.11049476    -0.08560
C783        C  0.66067827  0.70956513  0.10745044     0.04970
C784        C  0.62984540  0.66057977  0.11645419    -0.03590
Br785      Br  0.55793989  0.62653786  0.11453036    -0.03280
H786        H  0.62804956  0.59905142  0.13698846     0.08880
H787        H  0.73753902  0.76958117  0.10402016     0.06900
Br788      Br  0.80638643  0.73794565  0.12454813    -0.03710
C789        C  0.02471011  0.73435463  0.10627805    -0.10340
C790        C  0.04818415  0.78483315  0.10637359     0.05850
C791        C  0.02377112  0.80869249  0.11888070    -0.04110
C792        C  0.97516658  0.78038018  0.12990668    -0.08560
C793        C  0.95077052  0.72885259  0.12883540     0.04970
C794        C  0.97775420  0.70653520  0.11756103    -0.03590
Br795      Br  0.96227487  0.64021873  0.11892491    -0.03280
H796        H  0.04336218  0.71584472  0.09711191     0.08880
H797        H  0.95670289  0.79857791  0.13961600     0.06900
Br798      Br  0.05446113  0.87893919  0.12253573    -0.03710
C799        C  0.99217155  0.73374905  0.21189980    -0.10340
C800        C  0.97648578  0.68334013  0.21164015     0.05850
C801        C  0.99707889  0.66474048  0.23118285    -0.04110
C802        C  0.03366172  0.69663942  0.25014214    -0.08560
C803        C  0.04964004  0.74738548  0.25055730     0.04970
C804        C  0.02753138  0.76568427  0.23145378    -0.03590
Br805      Br  0.04059842  0.83244158  0.23164461    -0.03280
H806        H  0.97438351  0.74801718  0.19808225     0.08880
H807        H  0.04958050  0.68133192  0.26465753     0.06900
Br808      Br  0.97457455  0.59582207  0.23390248    -0.03710
C809        C  0.84460517  0.60324760  0.28856855    -0.10340
C810        C  0.79675753  0.58647920  0.27774942     0.05850
C811        C  0.75628565  0.57028454  0.29701774    -0.04110
C812        C  0.76503402  0.57338644  0.32671341    -0.08560
C813        C  0.81417706  0.59514435  0.33768438     0.04970
C814        C  0.85395764  0.60847076  0.31774211    -0.03590
Br815      Br  0.92376192  0.63874269  0.32693248    -0.03280
H816        H  0.87599377  0.61612793  0.27392901     0.08880
H817        H  0.73365985  0.56188574  0.34115993     0.06900
Br818      Br  0.68976546  0.54939821  0.28390028    -0.03710
C819        C  0.88276366  0.56677497  0.06220900    -0.10340
C820        C  0.83686316  0.54756498  0.07649983     0.05850
C821        C  0.79267395  0.52501444  0.05962582    -0.04110
C822        C  0.79543304  0.52769076  0.02963417    -0.08560
C823        C  0.84167061  0.55455112  0.01563845     0.04970
C824        C  0.88578299  0.57243993  0.03244019    -0.03590
Br825      Br  0.95207383  0.61195104  0.01706490    -0.03280
H826        H  0.91703078  0.58216106  0.07410362     0.08880
H827        H  0.76104501  0.51375306  0.01756559     0.06900
Br828      Br  0.72692358  0.49328134  0.07639330    -0.03710
O829        O  0.86514094  0.56511100  0.62662896    -0.81330
O830        O  0.74981525  0.64635902  0.72029034    -0.81350
O831        O  0.74561618  0.61105969  0.62931789    -0.81360
O832        O  0.89637456  0.71163668  0.66870492    -0.81300
O833        O  0.71970696  0.62382441  0.67002950    -0.81420
O834        O  0.87167944  0.65778400  0.63260423    -0.81340
O835        O  0.81252124  0.70945162  0.69934980    -0.81330
O836        O  0.80346882  0.57485383  0.61317396    -0.81360
C837        C  0.83475934  0.56105444  0.60711801     1.08360
C838        C  0.77325213  0.69192102  0.71476176     1.08250
C839        C  0.72494122  0.62993935  0.64358424     1.08390
C840        C  0.90197776  0.69934499  0.64327676     1.08260
O841        O  0.92174750  0.63765634  0.67326386    -0.81330
O842        O  0.67757872  0.55458226  0.70984058    -0.81400
O843        O  0.76957551  0.50671068  0.66273066    -0.81340
O844        O  0.82007391  0.64403327  0.74069018    -0.81320
O845        O  0.76706303  0.56648286  0.72922369    -0.81370
O846        O  0.83935231  0.55232211  0.68479705    -0.81340
O847        O  0.89050617  0.64273686  0.71292968    -0.81300
O848        O  0.69220170  0.53247412  0.66754258    -0.81370
Co849      Co  0.85162438  0.60120406  0.65738499     1.51530
Co850      Co  0.74401061  0.59139142  0.69720397     1.51690
Co851      Co  0.75926376  0.56267904  0.64733408     1.51570
Co852      Co  0.85260858  0.67518393  0.70319058     1.51470
O853        O  0.80721413  0.61854425  0.67765432    -1.43260
C854        C  0.92795096  0.65106222  0.69882632     1.08290
C855        C  0.66199880  0.52896519  0.68734818     1.08380
C856        C  0.80544465  0.51087679  0.67831595     1.08320
C857        C  0.79414464  0.59871542  0.74760711     1.08290
O858        O  0.85515487  0.76895157  0.90316369    -0.81330
O859        O  0.74543680  0.59074594  0.93870142    -0.81350
O860        O  0.86898216  0.62572953  0.87725335    -0.81360
O861        O  0.79010109  0.68673810  0.98042222    -0.81300
O862        O  0.79110131  0.59803326  0.88753594    -0.81420
O863        O  0.83295848  0.75240725  0.95509094    -0.81340
O864        O  0.76144419  0.59116693  0.98318615    -0.81330
O865        O  0.88077289  0.72035890  0.88151340    -0.81360
C866        C  0.86462916  0.75286263  0.88060937     1.08360
C867        C  0.73016762  0.57228065  0.96269006     1.08250
C868        C  0.82454517  0.60665526  0.86899565     1.08390
C869        C  0.80344166  0.73073114  0.97526842     1.08260
O870        O  0.90076493  0.76871667  0.95589066    -0.81330
O871        O  0.85343805  0.56598378  0.91548914    -0.81400
O872        O  0.95135857  0.72540847  0.93265359    -0.81340
O873        O  0.87061778  0.62285613  0.98623354    -0.81320
O874        O  0.81026651  0.55600829  0.96747151    -0.81370
O875        O  0.92884569  0.77615710  0.92229428    -0.81340
O876        O  0.89606172  0.71805602  0.99004001    -0.81300
O877        O  0.92504946  0.63109219  0.92663350    -0.81370
Co878      Co  0.85318481  0.72085902  0.92560596     1.51530
Co879      Co  0.80262704  0.58356714  0.92783486     1.51690
Co880      Co  0.90382194  0.67533852  0.90752953     1.51570
Co881      Co  0.83209624  0.65564550  0.98196307     1.51470
O882        O  0.84913699  0.65764344  0.93882748    -1.43260
C883        C  0.91613645  0.76108285  0.97964183     1.08290
C884        C  0.89824202  0.58473344  0.92360805     1.08380
C885        C  0.96335083  0.76561114  0.92162908     1.08320
C886        C  0.84285095  0.57739134  0.98741305     1.08290
O887        O  0.09666587  0.82263006  0.53010693    -0.81330
O888        O  0.29632062  0.95368096  0.52583330    -0.81350
O889        O  0.17703393  0.94940911  0.58723167    -0.81360
O890        O  0.21854425  0.80214193  0.99129188    -0.81300
O891        O  0.24271242  0.95722633  0.56525824    -0.81420
O892        O  0.14112239  0.78526400  0.99790646    -0.81340
O893        O  0.24615510  0.89928659  0.49644021    -0.81330
O894        O  0.14493901  0.90375681  0.53275175    -0.81360
C895        C  0.10355852  0.86552642  0.52578929     1.08360
C896        C  0.27171334  0.94394796  0.50328710     1.08250
C897        C  0.22462436  0.97078682  0.58529057     1.08390
C898        C  0.17494515  0.78618470  0.98213482     1.08260
O899        O  0.16262714  0.74541907  0.54703246    -0.81330
O900        O  0.26637151  0.88866482  0.60023288    -0.81400
O901        O  0.10902535  0.85246577  0.58174710    -0.81340
O902        O  0.31498966  0.86415075  0.50993100    -0.81320
O903        O  0.31691183  0.88286908  0.55538744    -0.81370
O904        O  0.11721683  0.78715075  0.58139345    -0.81340
O905        O  0.24534158  0.79180129  0.54460999    -0.81300
O906        O  0.19214463  0.87728996  0.60728298    -0.81370
Co907      Co  0.13459725  0.78930363  0.54012174     1.51530
Co908      Co  0.27367710  0.91413145  0.56110546     1.51690
Co909      Co  0.17642032  0.89435186  0.56800245     1.51570
Co910      Co  0.24901150  0.84944938  0.52248493     1.51470
O911        O  0.20019353  0.85306404  0.54733424    -1.43260
C912        C  0.20581180  0.74970829  0.54742701     1.08290
C913        C  0.23049607  0.87744730  0.61678765     1.08380
C914        C  0.09454542  0.80968350  0.58994105     1.08320
C915        C  0.33687651  0.87355079  0.53406319     1.08290
O916        O  0.11632403  0.76052320  0.78125266    -0.81330
O917        O  0.35277379  0.88645833  0.80154247    -0.81350
O918        O  0.20220291  0.84833493  0.74983767    -0.81360
O919        O  0.27197465  0.79462561  0.81252010    -0.81300
O920        O  0.27669845  0.85366381  0.75358310    -0.81420
O921        O  0.19176216  0.75188999  0.80311522    -0.81340
O922        O  0.33902793  0.85987804  0.84672985    -0.81330
O923        O  0.11211232  0.82682909  0.76906731    -0.81360
C924        C  0.09355460  0.77976316  0.76821810     1.08360
C925        C  0.36719988  0.87459442  0.82513667     1.08250
C926        C  0.23870106  0.84582355  0.73863908     1.08390
C927        C  0.23234922  0.75367326  0.80858413     1.08260
O928        O  0.16821351  0.78392994  0.84108164    -0.81330
O929        O  0.26900448  0.93676161  0.76097993    -0.81400
O930        O  0.14360008  0.86769652  0.82257555    -0.81340
O931        O  0.30467220  0.92297856  0.84994999    -0.81320
O932        O  0.32949476  0.96445623  0.80960460    -0.81370
O933        O  0.13529927  0.79742662  0.83114032    -0.81340
O934        O  0.24328071  0.82402347  0.86268619    -0.81300
O935        O  0.20036890  0.92837035  0.78008598    -0.81370
Co936      Co  0.18089008  0.80726115  0.79832984     1.51530
Co937      Co  0.30214243  0.90702050  0.78305239     1.51690
Co938      Co  0.17746502  0.85804246  0.78816008     1.51570
Co939      Co  0.28489759  0.85915961  0.83046699     1.51470
O940        O  0.24014882  0.87031372  0.80890030    -1.43260
C941        C  0.19706172  0.79359759  0.86332201     1.08290
C942        C  0.24296622  0.95544480  0.76894697     1.08380
C943        C  0.12044073  0.82798606  0.83606641     1.08320
C944        C  0.32617912  0.96369558  0.83659354     1.08290
O945        O  0.17936296  0.52398205  0.53621623    -0.81330
O946        O  0.30040326  0.44732491  0.53718984    -0.81350
O947        O  0.28933365  0.55226416  0.60195959    -0.81360
O948        O  0.21032335  0.42323227  0.00991888    -0.81300
O949        O  0.32391553  0.53366197  0.56603077    -0.81420
O950        O  0.17537082  0.46620617  0.49518860    -0.81340
O951        O  0.23814325  0.37201711  0.53919459    -0.81330
O952        O  0.21330029  0.55285302  0.57772285    -0.81360
C953        C  0.19717695  0.55850856  0.55437131     1.08360
C954        C  0.28239569  0.40224989  0.53089088     1.08250
C955        C  0.32275918  0.56531251  0.58233354     1.08390
C956        C  0.20274770  0.44712562  0.99034413     1.08260
O957        O  0.11957611  0.40090993  0.53166406    -0.81330
O958        O  0.29501144  0.47991375  0.61991856    -0.81400
O959        O  0.14088895  0.45631442  0.59947688    -0.81340
O960        O  0.17727644  0.35878885  0.58687903    -0.81320
O961        O  0.26067020  0.39406633  0.59072501    -0.81370
O962        O  0.12087631  0.43089304  0.55402768    -0.81340
O963        O  0.13476616  0.33787857  0.53102039    -0.81300
O964        O  0.21596480  0.45440640  0.62680498    -0.81370
Co965      Co  0.19121758  0.46629915  0.53465975     1.51530
Co966      Co  0.29162997  0.46420901  0.57731243     1.51690
Co967      Co  0.21461487  0.50022563  0.59977962     1.51570
Co968      Co  0.18807427  0.39381837  0.55003535     1.51470
O969        O  0.22471274  0.45956766  0.56932315    -1.43260
C970        C  0.10600599  0.35503335  0.52502016     1.08290
C971        C  0.25718540  0.46270415  0.63647133     1.08380
C972        C  0.10854461  0.43114463  0.58062685     1.08320
C973        C  0.21632720  0.35974714  0.59707076     1.08290
O974        O  0.24209633  0.55086776  0.80452943    -0.81330
O975        O  0.34232867  0.44645499  0.81233258    -0.81350
O976        O  0.30008822  0.54347324  0.85506220    -0.81360
O977        O  0.23871546  0.41361831  0.77393091    -0.81300
O978        O  0.32132767  0.52451465  0.81340566    -0.81420
O979        O  0.24151768  0.48634706  0.76551538    -0.81340
O980        O  0.27086082  0.40195401  0.78811232    -0.81330
O981        O  0.21281087  0.54523146  0.84703592    -0.81360
C982        C  0.23123133  0.57010117  0.82463746     1.08360
C983        C  0.31800275  0.41574181  0.79249179     1.08250
C984        C  0.32978126  0.55512209  0.83352954     1.08390
C985        C  0.24720053  0.45062629  0.75751822     1.08260
O986        O  0.14325704  0.42041432  0.77829564    -0.81330
O987        O  0.31459070  0.47401322  0.86512873    -0.81400
O988        O  0.15551038  0.44588532  0.86325730    -0.81340
O989        O  0.20752047  0.32723760  0.81518673    -0.81320
O990        O  0.26120924  0.38631293  0.84313732    -0.81370
O991        O  0.13747429  0.47170534  0.82300423    -0.81340
O992        O  0.15316161  0.35754696  0.78855864    -0.81300
O993        O  0.23669396  0.44098160  0.87599104    -0.81370
Co994      Co  0.19379712  0.48208486  0.79468071     1.51530
Co995      Co  0.28812391  0.45560185  0.82445911     1.51690
Co996      Co  0.22614011  0.49152348  0.85959337     1.51570
Co997      Co  0.21071235  0.39074635  0.81477606     1.51470
O998        O  0.22430710  0.45799717  0.82322518    -1.43260
C999        C  0.13183881  0.37642559  0.77487648     1.08290
C1000       C  0.28057527  0.45691935  0.88399959     1.08380
C1001       C  0.12422875  0.44797963  0.84688358     1.08320
C1002       C  0.24017812  0.34133520  0.83469216     1.08290
O1003       O  0.43914138  0.34220906  0.66747070    -0.81330
O1004       O  0.36783905  0.12565670  0.68403876    -0.81350
O1005       O  0.51984616  0.26487622  0.70163719    -0.81360
O1006       O  0.35309018  0.19506730  0.63805193    -0.81300
O1007       O  0.47250654  0.18571992  0.68782781    -0.81420
O1008       O  0.41923816  0.26488527  0.63214243    -0.81340
O1009       O  0.33185577  0.15741519  0.65679143    -0.81330
O1010       O  0.49717860  0.32395592  0.67251465    -0.81360
C1011       C  0.48494769  0.35587415  0.66932251     1.08360
C1012       C  0.33883499  0.12183569  0.66407767     1.08250
C1013       C  0.51486004  0.22514048  0.69036281     1.08390
C1014       C  0.39087371  0.22304514  0.62233638     1.08260
O1015       O  0.34328457  0.28764452  0.64680596    -0.81330
O1016       O  0.46338063  0.20680712  0.74319355    -0.81400
O1017       O  0.43532529  0.32761065  0.71989773    -0.81340
O1018       O  0.30317925  0.16019667  0.70497327    -0.81320
O1019       O  0.36430633  0.18084568  0.73442452    -0.81370
O1020       O  0.35955843  0.28056491  0.70367579    -0.81340
O1021       O  0.28482940  0.21742760  0.66436962    -0.81300
O1022       O  0.45543580  0.27031558  0.74808464    -0.81370
Co1023     Co  0.38797114  0.27037989  0.66767421     1.51530
Co1024     Co  0.41556684  0.17814694  0.71062018     1.51690
Co1025     Co  0.47468424  0.29394424  0.70935957     1.51570
Co1026     Co  0.34655863  0.21818178  0.67880046     1.51470
O1027       O  0.41884303  0.23669626  0.69018346    -1.43260
C1028       C  0.29673105  0.25708779  0.65062874     1.08290
C1029       C  0.46597261  0.24047014  0.75863985     1.08380
C1030       C  0.38900702  0.31289296  0.72095920     1.08320
C1031       C  0.31970884  0.15243134  0.72801166     1.08290
O1032       O  0.52940205  0.35917058  0.93470839    -0.81330
O1033       O  0.44672254  0.17483276  0.90790955    -0.81350
O1034       O  0.53330887  0.28845148  0.97965997    -0.81360
O1035       O  0.41240355  0.23547181  0.88495251    -0.81300
O1036       O  0.52717468  0.24629177  0.94013708    -0.81420
O1037       O  0.48602441  0.29876150  0.89181093    -0.81340
O1038       O  0.36762694  0.15497177  0.90730300    -0.81330
O1039       O  0.51058620  0.36270370  0.97840629    -0.81360
C1040       C  0.54070662  0.38229068  0.95802269     1.08360
C1041       C  0.40183461  0.14664159  0.89925629     1.08250
C1042       C  0.55364885  0.27897119  0.95803804     1.08390
C1043       C  0.45655906  0.26428780  0.87630103     1.08260
O1044       O  0.38601557  0.28965255  0.90461252    -0.81330
O1045       O  0.47277404  0.20068943  0.99295007    -0.81400
O1046       O  0.40554814  0.29582746  0.98605164    -0.81340
O1047       O  0.33892165  0.17287917  0.95765159    -0.81320
O1048       O  0.39126052  0.14305601  0.95865865    -0.81370
O1049       O  0.43019457  0.34874138  0.95113217    -0.81340
O1050       O  0.32101977  0.21307335  0.90587875    -0.81300
O1051       O  0.41925533  0.22300166  0.99396746    -0.81370
Co1052     Co  0.45775973  0.31897546  0.92225563     1.51530
Co1053     Co  0.45990805  0.19678745  0.94912362     1.51690
Co1054     Co  0.46532347  0.28908757  0.98281396     1.51570
Co1055     Co  0.37844319  0.21721106  0.92444544     1.51470
O1056       O  0.44413130  0.25490698  0.94437713    -1.43260
C1057       C  0.34015781  0.25779079  0.89773059     1.08290
C1058       C  0.43976736  0.20423484  0.00718463     1.08380
C1059       C  0.40356733  0.33025751  0.97340425     1.08320
C1060       C  0.34761277  0.13709034  0.96239952     1.08290
O1061       O  0.59945857  0.71803017  0.58093595    -0.81330
O1062       O  0.52817652  0.84945082  0.57574168    -0.81350
O1063       O  0.66499851  0.85961712  0.62276171    -0.81360
O1064       O  0.51938798  0.77153048  0.53653824    -0.81300
O1065       O  0.58670471  0.84493574  0.62021278    -0.81420
O1066       O  0.53925826  0.76042476  0.58007959    -0.81340
O1067       O  0.54506213  0.87001059  0.53206646    -0.81330
O1068       O  0.66924872  0.78645722  0.59428820    -0.81360
C1069       C  0.64078792  0.73880383  0.59437394     1.08360
C1070       C  0.51517458  0.85862337  0.55214444     1.08250
C1071       C  0.62283321  0.84707800  0.63454532     1.08390
C1072       C  0.50619279  0.74981039  0.56118269     1.08260
O1073       O  0.57440649  0.73775929  0.52729228    -0.81330
O1074       O  0.66749217  0.93579710  0.60289332    -0.81400
O1075       O  0.72013183  0.85784001  0.54610692    -0.81340
O1076       O  0.64033845  0.90336565  0.51632285    -0.81320
O1077       O  0.62190535  0.93744315  0.55322230    -0.81370
O1078       O  0.66386106  0.78120818  0.54394782    -0.81340
O1079       O  0.61868834  0.80695745  0.50562979    -0.81300
O1080       O  0.71973150  0.92937437  0.57505618    -0.81370
Co1081     Co  0.60341374  0.77472758  0.56496409     1.51530
Co1082     Co  0.60123418  0.88758433  0.58607565     1.51690
Co1083     Co  0.68819985  0.85814832  0.58225756     1.51570
Co1084     Co  0.58440018  0.83776140  0.52478542     1.51470
O1085       O  0.62107507  0.84416957  0.56214454    -1.43260
C1086       C  0.59527163  0.76075816  0.00448605     1.08290
C1087       C  0.71195377  0.95216975  0.59434686     1.08380
C1088       C  0.70623804  0.81562677  0.53707149     1.08320
C1089       C  0.64284947  0.94097944  0.52871397     1.08290
O1090       O  0.69978336  0.78056871  0.83408065    -0.81330
O1091       O  0.68799702  0.92748371  0.84049351    -0.81350
O1092       O  0.74702062  0.94606482  0.79533044    -0.81360
O1093       O  0.64316657  0.80353606  0.88687834    -0.81300
O1094       O  0.67446306  0.94339839  0.78785637    -0.81420
O1095       O  0.61194367  0.73236846  0.86617969    -0.81340
O1096       O  0.64806703  0.89173721  0.88004926    -0.81330
O1097       O  0.75121267  0.85970708  0.82282815    -0.81360
C1098       C  0.74375539  0.81729756  0.83111288     1.08360
C1099       C  0.68245275  0.92832991  0.86696104     1.08250
C1100       C  0.72218889  0.96726007  0.78690475     1.08390
C1101       C  0.62564747  0.75805139  0.88878557     1.08260
O1102       O  0.55825563  0.73323699  0.81726371    -0.81330
O1103       O  0.60612658  0.84508451  0.77594872    -0.81400
O1104       O  0.71348690  0.83932970  0.78177563    -0.81340
O1105       O  0.55117199  0.84110162  0.85265230    -0.81320
O1106       O  0.58882984  0.89281980  0.81744133    -0.81370
O1107       O  0.64293972  0.76942544  0.78452289    -0.81340
O1108       O  0.54238717  0.75300442  0.86000517    -0.81300
O1109       O  0.68293095  0.86783713  0.76801345    -0.81370
Co1110     Co  0.62867551  0.75760819  0.82520303     1.51530
Co1111     Co  0.64596639  0.88289567  0.80903693     1.51690
Co1112     Co  0.69900332  0.87933744  0.81150411     1.51570
Co1113     Co  0.59935731  0.82299329  0.86772378     1.51470
O1114       O  0.63419920  0.82387423  0.83042362    -1.43260
C1115       C  0.52810329  0.72633906  0.83738667     1.08290
C1116       C  0.63922957  0.85276186  0.75793261     1.08380
C1117       C  0.68765413  0.79313098  0.77596503     1.08320
C1118       C  0.55165614  0.86939003  0.83352598     1.08290
O1119       O  0.87209237  0.34376991  0.68855133    -0.81330
O1120       O  0.74418893  0.13435587  0.70481090    -0.81350
O1121       O  0.72511595  0.24222560  0.64637023    -0.81360
O1122       O  0.84240356  0.21722059  0.73077484    -0.81300
O1123       O  0.70472930  0.18997451  0.68206199    -0.81420
O1124       O  0.82529400  0.27421144  0.72593493    -0.81340
O1125       O  0.82529382  0.16907552  0.71525195    -0.81330
O1126       O  0.79825522  0.31814848  0.67007496    -0.81360
C1127       C  0.83372770  0.34832701  0.68499591     1.08360
C1128       C  0.78003088  0.13467826  0.71838551     1.08250
C1129       C  0.69639771  0.21871519  0.66738943     1.08390
C1130       C  0.82432495  0.24253399  0.74193817     1.08260
O1131       O  0.92810569  0.30517388  0.71528994    -0.81330
O1132       O  0.72812791  0.17158875  0.62506436    -0.81400
O1133       O  0.87609713  0.31805447  0.63303045    -0.81340
O1134       O  0.84985884  0.15726533  0.66953644    -0.81320
O1135       O  0.77509961  0.12798453  0.64922133    -0.81370
O1136       O  0.91025729  0.28600631  0.65941795    -0.81340
O1137       O  0.92658113  0.23574599  0.70318793    -0.81300
O1138       O  0.80357912  0.22986030  0.61510478    -0.81370
Co1139     Co  0.86583177  0.27711455  0.69303139     1.51530
Co1140     Co  0.74241316  0.16101465  0.66627599     1.51690
Co1141     Co  0.80146015  0.27438431  0.64240494     1.51570
Co1142     Co  0.86231571  0.22278153  0.68710235     1.51470
O1143       O  0.80436318  0.22959574  0.67173297    -1.43260
C1144       C  0.94882835  0.27817592  0.71522560     1.08290
C1145       C  0.76182724  0.19721172  0.60690790     1.08380
C1146       C  0.91349082  0.31247853  0.63844474     1.08320
C1147       C  0.81297142  0.12448924  0.65494558     1.08290
O1148       O  0.88183606  0.37772172  0.95964909    -0.81330
O1149       O  0.72400521  0.15113277  0.95575807    -0.81350
O1150       O  0.75694109  0.29507567  0.90197333    -0.81360
O1151       O  0.78726281  0.22883369  0.47663438    -0.81300
O1152       O  0.72723096  0.24313720  0.93785220    -0.81420
O1153       O  0.85295175  0.29580753  0.98751471    -0.81340
O1154       O  0.78937870  0.14522621  0.97119410    -0.81330
O1155       O  0.85358050  0.37056153  0.91560502    -0.81360
C1156       C  0.87478485  0.39709541  0.93787168     1.08360
C1157       C  0.74276009  0.12877417  0.97055839     1.08250
C1158       C  0.72931674  0.27878359  0.92432273     1.08390
C1159       C  0.81441371  0.25758039  0.49531447     1.08260
O1160       O  0.91678742  0.30783097  0.95241290    -0.81330
O1161       O  0.73262983  0.21420607  0.87765127    -0.81400
O1162       O  0.89565437  0.32283049  0.88425129    -0.81340
O1163       O  0.82198636  0.15805631  0.91891093    -0.81320
O1164       O  0.75286878  0.14712961  0.89918018    -0.81370
O1165       O  0.92338548  0.33790711  0.92857936    -0.81340
O1166       O  0.88149362  0.22821692  0.96411079    -0.81300
O1167       O  0.81076263  0.25140140  0.86713267    -0.81370
Co1168     Co  0.85364467  0.31196194  0.94616323     1.51530
Co1169     Co  0.74273819  0.19686036  0.91862078     1.51690
Co1170     Co  0.82711883  0.30437170  0.89402500     1.51570
Co1171     Co  0.81148260  0.19953289  0.94767751     1.51470
O1172       O  0.82058628  0.25120859  0.92278901    -1.43260
C1173       C  0.91956240  0.27159640  0.96334258     1.08290
C1174       C  0.76699637  0.22583136  0.85914591     1.08380
C1175       C  0.93166307  0.34214388  0.90149905     1.08320
C1176       C  0.78187944  0.13090083  0.90485922     1.08290
C1177       C  0.79552559  0.19402531  0.78732870    -0.10340
C1178       C  0.80189691  0.23435325  0.77131894     0.05850
C1179       C  0.78693853  0.26628481  0.78408813    -0.04110
C1180       C  0.76555861  0.25664636  0.81152429    -0.08560
C1181       C  0.76086140  0.21718493  0.82789099     0.04970
C1182       C  0.77537112  0.18527454  0.81496701    -0.03590
Br1183     Br  0.77421388  0.13192101  0.83493307    -0.03280
H1184       H  0.80897979  0.17053422  0.77901541     0.08880
H1185       H  0.75841693  0.28383320  0.82152142     0.06900
Br1186     Br  0.80295614  0.32882244  0.76828258    -0.03710
C1187       C  0.75110025  0.23835102  0.56645532    -0.10340
C1188       C  0.75409130  0.19760980  0.57647375     0.05850
C1189       C  0.77638586  0.17737574  0.55916154    -0.04110
C1190       C  0.79965440  0.20028647  0.53380833    -0.08560
C1191       C  0.79979117  0.24289086  0.52475718     0.04970
C1192       C  0.77380739  0.26107219  0.54072168    -0.03590
Br1193     Br  0.77002600  0.31751286  0.52870684    -0.03280
H1194       H  0.73554935  0.25551662  0.58003318     0.08880
H1195       H  0.81754077  0.18455882  0.52100088     0.06900
Br1196     Br  0.77893256  0.12049072  0.57069138    -0.03710
C1197       C  0.78875792  0.05686269  0.88766636    -0.10340
C1198       C  0.76041409  0.07699160  0.89884704     0.05850
C1199       C  0.70772245  0.04464019  0.90256689    -0.04110
C1200       C  0.68539854  0.99517106  0.89515002    -0.08560
C1201       C  0.71248930  0.97618026  0.88185036     0.04970
C1202       C  0.76485637  0.00720758  0.87835615    -0.03590
Br1203     Br  0.80472658  0.98340041  0.86061536    -0.03280
H1204       H  0.82866254  0.08029660  0.88446387     0.08880
H1205       H  0.64514726  0.97218999  0.89747030     0.06900
Br1206     Br  0.66043967  0.06366515  0.91587022    -0.03710
C1207       C  0.78954887  0.03751265  0.76085810    -0.10340
C1208       C  0.74492580  0.01767670  0.77614414     0.05850
C1209       C  0.71719776  0.04283534  0.77676993    -0.04110
C1210       C  0.72964308  0.08177502  0.75826794    -0.08560
C1211       C  0.77146097  0.09853024  0.74066921     0.04970
C1212       C  0.80359386  0.07827935  0.74344470    -0.03590
Br1213     Br  0.86226733  0.09784376  0.72050455    -0.03280
H1214       H  0.81137560  0.01902649  0.76061105     0.08880
H1215       H  0.70643226  0.09877097  0.75744002     0.06900
Br1216     Br  0.66140319  0.02586470  0.80201946    -0.03710
C1217       C  0.74306667  0.99068083  0.64028941    -0.10340
C1218       C  0.75318738  0.99126613  0.61143269     0.05850
C1219       C  0.79787274  0.03106598  0.60070149    -0.04110
C1220       C  0.82539480  0.07365148  0.61789411    -0.08560
C1221       C  0.80780122  0.07686036  0.64524371     0.04970
C1222       C  0.76715302  0.03301989  0.65649820    -0.03590
Br1223     Br  0.72837873  0.02876726  0.68903381    -0.03280
H1224       H  0.71070179  0.95883007  0.64933434     0.08880
H1225       H  0.85617382  0.10620670  0.60844357     0.06900
Br1226     Br  0.81931851  0.03076404  0.56234860    -0.03710
C1227       C  0.65823831  0.02738940  0.52238172    -0.10340
C1228       C  0.66690330  0.98906642  0.51331071     0.05850
C1229       C  0.69691152  0.99722196  0.98875500    -0.04110
C1230       C  0.71988897  0.04294485  0.97560023    -0.08560
C1231       C  0.71159128  0.08089137  0.98460122     0.04970
C1232       C  0.67946031  0.07269822  0.50781436    -0.03590
Br1233     Br  0.66463337  0.12223953  0.52051640    -0.03280
H1234       H  0.63435695  0.02199093  0.54060203     0.08880
H1235       H  0.74493954  0.04902215  0.95787308     0.06900
Br1236     Br  0.70904717  0.94899107  0.97078290    -0.03710
C1237       C  0.64055400  0.74309097  0.96655432    -0.10340
C1238       C  0.59488441  0.73701768  0.97697866     0.05850
C1239       C  0.55563397  0.72439283  0.95748849    -0.04110
C1240       C  0.56419192  0.72373046  0.92810550    -0.08560
C1241       C  0.61189771  0.73621388  0.91761078     0.04970
C1242       C  0.64926623  0.74297834  0.93713021    -0.03590
Br1243     Br  0.71420657  0.75755266  0.92391163    -0.03280
H1244       H  0.67103673  0.75241545  0.98111826     0.08880
H1245       H  0.53504079  0.71889407  0.91340161     0.06900
Br1246     Br  0.49240682  0.71600811  0.96959867    -0.03710
C1247       C  0.63460133  0.81237562  0.71118433    -0.10340
C1248       C  0.62923559  0.84762882  0.72676735     0.05850
C1249       C  0.61824804  0.88023364  0.71182910    -0.04110
C1250       C  0.61258484  0.87682894  0.68204513    -0.08560
C1251       C  0.61928419  0.84234430  0.66627562     0.04970
C1252       C  0.63008422  0.80974909  0.68138543    -0.03590
Br1253     Br  0.63863849  0.76025606  0.66301369    -0.03280
H1254       H  0.64308775  0.78710017  0.72215366     0.08880
H1255       H  0.60609975  0.90342905  0.67096573     0.06900
Br1256     Br  0.61677089  0.93414326  0.73031484    -0.03710
C1257       C  0.62553852  0.31181491  0.92451259    -0.10340
C1258       C  0.60875042  0.30118455  0.95306400     0.05850
C1259       C  0.63983507  0.29557629  0.97274687    -0.04110
C1260       C  0.68169681  0.29275506  0.96312406    -0.08560
C1261       C  0.69459176  0.29672786  0.93394815     0.04970
C1262       C  0.66782328  0.30975046  0.91485920    -0.03590
Br1263     Br  0.68200993  0.31770635  0.87475018    -0.03280
H1264       H  0.60249313  0.31668343  0.90890876     0.08880
H1265       H  0.70232909  0.28397477  0.97837513     0.06900
Br1266     Br  0.62378907  0.28599110  0.01239804    -0.03710
C1267       C  0.57735141  0.20184184  0.70325716    -0.10340
C1268       C  0.56059679  0.22349096  0.68344383     0.05850
C1269       C  0.58963313  0.24592844  0.65903933    -0.04110
C1270       C  0.63367690  0.24411807  0.65407320    -0.08560
C1271       C  0.65038265  0.22152212  0.67370239     0.04970
C1272       C  0.62207532  0.20148348  0.69907809    -0.03590
Br1273     Br  0.64277857  0.17615642  0.73038482    -0.03280
H1274       H  0.55610131  0.18634094  0.72266458     0.08880
H1275       H  0.65491681  0.26059374  0.63482386     0.06900
Br1276     Br  0.57076954  0.27963351  0.63216287    -0.03710
C1277       C  0.50362993  0.29248660  0.80074880    -0.10340
C1278       C  0.47843174  0.24497623  0.78892641     0.05850
C1279       C  0.45645905  0.20411201  0.80706472    -0.04110
C1280       C  0.45261931  0.21156018  0.83593791    -0.08560
C1281       C  0.47186649  0.25887527  0.84739664     0.04970
C1282       C  0.50118873  0.29985056  0.82986523    -0.03590
Br1283     Br  0.53404480  0.36679424  0.84317237    -0.03280
H1284       H  0.52233813  0.32429524  0.78701870     0.08880
H1285       H  0.43230676  0.17985999  0.84915965     0.06900
Br1286     Br  0.42625042  0.13753817  0.79376018    -0.03710
C1287       C  0.44606855  0.20911620  0.58831205    -0.10340
C1288       C  0.40033239  0.20759608  0.59420799     0.05850
C1289       C  0.36522238  0.19455439  0.57233119    -0.04110
C1290       C  0.37760838  0.18746621  0.54480645    -0.08560
C1291       C  0.42508362  0.19349200  0.53787239     0.04970
C1292       C  0.45830356  0.20136405  0.56041729    -0.03590
Br1293     Br  0.52065256  0.20350243  0.55421024    -0.03280
H1294       H  0.47262355  0.21725968  0.60534872     0.08880
H1295       H  0.35130257  0.18177879  0.52805290     0.06900
Br1296     Br  0.30265544  0.19307470  0.57799062    -0.03710
C1297       C  0.41674420  0.60328686  0.81663901    -0.10340
C1298       C  0.37833488  0.60175672  0.83350063     0.05850
C1299       C  0.38905423  0.64279229  0.85095629    -0.04110
C1300       C  0.43781021  0.68338338  0.85161608    -0.08560
C1301       C  0.47646277  0.68402817  0.83521593     0.04970
C1302       C  0.46511671  0.64309173  0.81747921    -0.03590
Br1303     Br  0.51333377  0.63522501  0.79531337    -0.03280
H1304       H  0.40985857  0.57212301  0.80338283     0.08880
H1305       H  0.44553020  0.71454665  0.86508865     0.06900
Br1306     Br  0.33915761  0.64689932  0.87361010    -0.03710
C1307       C  0.31340357  0.33447190  0.84606815    -0.10340
C1308       C  0.26113252  0.31140879  0.84619701     0.05850
C1309       C  0.23382043  0.26667885  0.86098202    -0.04110
C1310       C  0.25963962  0.24825444  0.87713953    -0.08560
C1311       C  0.31256539  0.27405428  0.87859826     0.04970
C1312       C  0.33912441  0.31660828  0.86155012    -0.03590
Br1313     Br  0.41082893  0.35401384  0.85751648    -0.03280
H1314       H  0.33521089  0.36847737  0.83463194     0.08880
H1315       H  0.23832198  0.21491097  0.88940442     0.06900
Br1316     Br  0.16215524  0.23220837  0.86140792    -0.03710
C1317       C  0.40504824  0.38687467  0.74914964    -0.10340
C1318       C  0.37142761  0.33789815  0.74077966     0.05850
C1319       C  0.32179925  0.31502369  0.75080318    -0.04110
C1320       C  0.30618350  0.34177844  0.76742433    -0.08560
C1321       C  0.33915592  0.39107881  0.77511967     0.04970
C1322       C  0.38938896  0.41344401  0.76630920    -0.03590
Br1323     Br  0.43709319  0.48049933  0.77545298    -0.03280
H1324       H  0.44346742  0.40517377  0.74169048     0.08880
H1325       H  0.26764792  0.32337197  0.77463504     0.06900
Br1326     Br  0.27343606  0.24735105  0.74315246    -0.03710
C1327       C  0.03292767  0.34709212  0.72013620    -0.10340
C1328       C  0.99898591  0.29826146  0.72687613     0.05850
C1329       C  0.01330282  0.27193501  0.74515849    -0.04110
C1330       C  0.05959794  0.29683952  0.75896792    -0.08560
C1331       C  0.09102069  0.34759359  0.75480525     0.04970
C1332       C  0.07883323  0.37188197  0.73355826    -0.03590
Br1333     Br  0.12127399  0.43938889  0.72213439    -0.03280
H1334       H  0.02293856  0.36668037  0.70487900     0.08880
H1335       H  0.06907662  0.27748342  0.77461829     0.06900
Br1336     Br  0.96935290  0.20422297  0.75451311    -0.03710
C1337       C  0.99278711  0.34899132  0.86541309    -0.10340
C1338       C  0.98230718  0.36970153  0.88905269     0.05850
C1339       C  0.01765463  0.41811305  0.89736691    -0.04110
C1340       C  0.06180455  0.44502270  0.88141221    -0.08560
C1341       C  0.07236668  0.42388849  0.85778091     0.04970
C1342       C  0.03811535  0.37450979  0.85090852    -0.03590
Br1343     Br  0.05357179  0.33648392  0.82562985    -0.03280
H1344       H  0.96646108  0.31145372  0.85913992     0.08880
H1345       H  0.08916588  0.48181746  0.88830065     0.06900
Br1346     Br  0.00794392  0.44924933  0.93007514    -0.03710
C1347       C  0.36755432  0.64634763  0.55675545    -0.10340
C1348       C  0.36483722  0.61677004  0.57998147     0.05850
C1349       C  0.40661012  0.63354788  0.59785793    -0.04110
C1350       C  0.45047176  0.67779155  0.59188615    -0.08560
C1351       C  0.45484606  0.70694770  0.56785222     0.04970
C1352       C  0.41157291  0.69137188  0.55087447    -0.03590
Br1353     Br  0.40925088  0.72967739  0.51994479    -0.03280
H1354       H  0.33562277  0.63377887  0.54269653     0.08880
H1355       H  0.48224070  0.68799572  0.60572925     0.06900
Br1356     Br  0.40729591  0.59478956  0.62924485    -0.03710
C1357       C  0.24370957  0.33996846  0.64078271    -0.10340
C1358       C  0.21450721  0.32148686  0.61633384     0.05850
C1359       C  0.20307750  0.27420933  0.60661979    -0.04110
C1360       C  0.22591253  0.24962325  0.61972080    -0.08560
C1361       C  0.25990319  0.27206303  0.64236630     0.04970
C1362       C  0.26605280  0.31626983  0.65373429    -0.03590
Br1363     Br  0.31124117  0.35139577  0.68417809    -0.03280
H1364       H  0.25571682  0.37685714  0.64750121     0.08880
H1365       H  0.22092296  0.21571743  0.61051015     0.06900
Br1366     Br  0.16489356  0.24676556  0.57255215    -0.03710
C1367       C  0.33482200  0.40353339  0.98868705    -0.10340
C1368       C  0.31344007  0.38466275  0.51556616     0.05850
C1369       C  0.32376307  0.34995805  0.52816729    -0.04110
C1370       C  0.35171847  0.33265789  0.51367798    -0.08560
C1371       C  0.37239787  0.35018969  0.98652689     0.04970
C1372       C  0.36403301  0.38681787  0.97414753    -0.03830
Br1373     Br  0.39152517  0.41606361  0.93784861    -0.03280
H1374       H  0.32892878  0.43151874  0.97896905     0.08880
H1375       H  0.35859664  0.30608836  0.52446833     0.06900
Br1376     Br  0.30671686  0.32914567  0.56673771    -0.03710
C1377       C  0.28816166  0.50342019  0.92637719    -0.10340
C1378       C  0.28746349  0.46165293  0.91469064     0.05850
C1379       C  0.26331450  0.41724059  0.92994984    -0.04110
C1380       C  0.23472615  0.41323362  0.95391335    -0.08560
C1381       C  0.22999723  0.45325860  0.96348020     0.04970
C1382       C  0.25893652  0.49938369  0.95031637    -0.03590
Br1383     Br  0.25955923  0.55759023  0.96382519    -0.03280
H1384       H  0.30604013  0.53782133  0.91472971     0.08880
H1385       H  0.21476124  0.37803228  0.96466254     0.06900
Br1386     Br  0.26011145  0.35837826  0.91557617    -0.03710
C1387       C  0.30207110  0.48722810  0.68339937    -0.10340
C1388       C  0.25983313  0.45456602  0.66736424     0.05850
C1389       C  0.21774739  0.41668179  0.68179828    -0.04110
C1390       C  0.21847636  0.41276053  0.71123069    -0.08560
C1391       C  0.25810953  0.44826068  0.72729640     0.04970
C1392       C  0.30081285  0.48512830  0.71334956    -0.03590
Br1393     Br  0.35700606  0.53354976  0.73452574    -0.03280
H1394       H  0.33456407  0.51640192  0.67283865     0.08880
H1395       H  0.18551318  0.38423750  0.72185332     0.06900
Br1396     Br  0.15643203  0.36963762  0.66338886    -0.03710
C1397       C  0.96679501  0.27529741  0.50750679    -0.10340
C1398       C  0.96711406  0.28246931  0.97790872     0.05850
C1399       C  0.01380771  0.30594329  0.96385572    -0.04110
C1400       C  0.05857286  0.32824578  0.97954355    -0.08560
C1401       C  0.05814591  0.32469056  0.50934905     0.04970
C1402       C  0.01185475  0.29484866  0.52302390    -0.03590
Br1403     Br  0.00840088  0.27778861  0.56225696    -0.03280
H1404       H  0.93139975  0.25552318  0.51872727     0.08880
H1405       H  0.09398608  0.34837479  0.96836967     0.06900
Br1406     Br  0.01855618  0.30301278  0.92346707    -0.03710
C1407       C  0.05007931  0.36261043  0.61229020    -0.10340
C1408       C  0.05621659  0.39751209  0.59164468     0.05850
C1409       C  0.01411837  0.40243183  0.58529954    -0.04110
C1410       C  0.96815111  0.37416903  0.60015014    -0.08560
C1411       C  0.96208420  0.33936876  0.62128582     0.04970
C1412       C  0.00403280  0.33285455  0.62617447    -0.03590
Br1413     Br  0.00184655  0.28193782  0.64971133    -0.03280
H1414       H  0.08152906  0.35748080  0.61718616     0.08880
H1415       H  0.93722338  0.38017329  0.59538271     0.06900
Br1416     Br  0.01854898  0.44930266  0.55777872    -0.03710
C1417       C  0.44059730  0.87484446  0.80237641    -0.10340
C1418       C  0.41606699  0.87631880  0.82728631     0.05850
C1419       C  0.43775343  0.87678617  0.85411732    -0.04110
C1420       C  0.48304595  0.87703477  0.85524042    -0.08560
C1421       C  0.50700235  0.87478703  0.83043551     0.04970
C1422       C  0.48486301  0.87264229  0.80379241    -0.03590
Br1423     Br  0.50846973  0.85898964  0.76912593    -0.03280
H1424       H  0.42386212  0.87257823  0.78175211     0.08880
H1425       H  0.49907793  0.87754753  0.87585943     0.06900
Br1426     Br  0.40841348  0.87521858  0.89074357    -0.03710
C1427       C  0.27304633  0.70211563  0.80211912    -0.10340
C1428       C  0.23234349  0.70662415  0.81181609     0.05850
C1429       C  0.19212176  0.66585378  0.82560365    -0.04110
C1430       C  0.19434360  0.62323375  0.83062493    -0.08560
C1431       C  0.23442590  0.61833741  0.82071063     0.04970
C1432       C  0.27354079  0.65781920  0.80552811    -0.03590
Br1433     Br  0.32830532  0.65375530  0.78882975    -0.03280
H1434       H  0.30387671  0.73263555  0.79120255     0.08880
H1435       H  0.16335518  0.59278800  0.84152963     0.06900
Br1436     Br  0.13280006  0.66482524  0.83908459    -0.03710
C1437       C  0.22971721  0.02795336  0.76157278    -0.10340
C1438       C  0.26179043  0.00768787  0.76194907     0.05850
C1439       C  0.31257680  0.03779615  0.75392178    -0.04110
C1440       C  0.32903853  0.08491706  0.74466458    -0.08560
C1441       C  0.29686644  0.10409705  0.74191749     0.04970
C1442       C  0.24690256  0.07599390  0.75113915    -0.03590
Br1443     Br  0.20101124  0.10018192  0.74780891    -0.03280
H1444       H  0.19082571  0.00566931  0.76777953     0.08880
H1445       H  0.36777025  0.10607847  0.73793122     0.06900
Br1446     Br  0.36355792  0.01893690  0.75259885    -0.03710
C1447       C  0.32705889  0.04155865  0.84732588    -0.10340
C1448       C  0.34747803  0.01111837  0.85206339     0.05850
C1449       C  0.39007785  0.02837503  0.86962081    -0.04110
C1450       C  0.40941664  0.07393305  0.88368500    -0.08560
C1451       C  0.38704900  0.10318746  0.88035231     0.04970
C1452       C  0.34616181  0.08700024  0.86120048    -0.03590
Br1453     Br  0.31564832  0.12583560  0.85183681    -0.03280
H1454       H  0.29579551  0.02976157  0.83281306     0.08880
H1455       H  0.44100411  0.08574719  0.89791693     0.06900
Br1456     Br  0.42466844  0.99232393  0.87383173    -0.03710
C1457       C  0.44253770  0.86397433  0.57076937    -0.10340
C1458       C  0.46781376  0.85896496  0.54740439     0.05850
C1459       C  0.44949103  0.85856249  0.51953928    -0.04110
C1460       C  0.40681835  0.86283075  0.51587637    -0.08560
C1461       C  0.38198146  0.86887198  0.53920700     0.04970
C1462       C  0.40076265  0.86978074  0.56710273    -0.03590
Br1463     Br  0.37306495  0.87890263  0.60194113    -0.03280
H1464       H  0.45637516  0.86506864  0.59211728     0.08880
H1465       H  0.39341552  0.86209323  0.49446334     0.06900
Br1466     Br  0.47965297  0.85202167  0.48493562    -0.03710
C1467       C  0.24150503  0.64990013  0.56210535    -0.10340
C1468       C  0.20114728  0.60777051  0.54947714     0.05850
C1469       C  0.16475485  0.61403855  0.53496108    -0.04110
C1470       C  0.16771234  0.66038498  0.53479107    -0.08560
C1471       C  0.20714264  0.70223936  0.54828986     0.04970
C1472       C  0.24514224  0.69654858  0.56126658    -0.03590
Br1473     Br  0.30133684  0.74990305  0.57963180    -0.03280
H1474       H  0.27042183  0.64644965  0.57317021     0.08880
H1475       H  0.13856823  0.66363389  0.52384849     0.06900
Br1476     Br  0.10877368  0.56052313  0.51621816    -0.03710
C1477       C  0.31572751  0.04903839  0.95104556    -0.10340
C1478       C  0.30888482  0.08382027  0.96708135     0.05850
C1479       C  0.27672971  0.06598919  0.99078512    -0.04110
C1480       C  0.25979262  0.01750890  0.50056383    -0.08560
C1481       C  0.27378352  0.98577313  0.98684890     0.04970
C1482       C  0.29910042  0.00097708  0.96076319    -0.03590
Br1483     Br  0.31811639  0.96010216  0.93979138    -0.03280
H1484       H  0.33895975  0.06084539  0.93216871     0.08880
H1485       H  0.23825595  0.00571885  0.52010064     0.06900
Br1486     Br  0.25684953  0.10652386  0.51103391    -0.03710
C1487       C  0.24066209  0.00255912  0.63352206    -0.10340
C1488       C  0.25736164  0.00794565  0.60550956     0.05850
C1489       C  0.30531555  0.04696391  0.59813775    -0.04110
C1490       C  0.33388221  0.08161558  0.61874998    -0.08560
C1491       C  0.31546273  0.07785309  0.64642198     0.04970
C1492       C  0.26927195  0.03700749  0.65390775    -0.03590
Br1493     Br  0.24051841  0.02624920  0.69059269    -0.03280
H1494       H  0.20473669  0.97156840  0.63955826     0.08880
H1495       H  0.36952715  0.11290883  0.61283879     0.06900
Br1496     Br  0.33271219  0.05806734  0.56037016    -0.03710
C1497       C  0.18976246  0.75009520  0.93846232    -0.10340
C1498       C  0.16572980  0.77314555  0.95164677     0.05850
C1499       C  0.14330366  0.79340926  0.93444194    -0.04110
C1500       C  0.14988980  0.79523447  0.90502170    -0.08560
C1501       C  0.17617240  0.77491128  0.89178713     0.04970
C1502       C  0.19510605  0.75085602  0.90876700    -0.03590
Br1503     Br  0.23462002  0.72481372  0.89286089    -0.03280
H1504       H  0.20772134  0.73475513  0.95139449     0.08880
H1505       H  0.14026612  0.81849870  0.89310047     0.06900
Br1506     Br  0.11175344  0.82774854  0.94977574    -0.03710
C1507       C  0.19441478  0.82554938  0.66104697    -0.10340
C1508       C  0.23451202  0.86593109  0.64746441     0.05850
C1509       C  0.27840856  0.89510605  0.66366231    -0.04110
C1510       C  0.28091499  0.88450239  0.69260688    -0.08560
C1511       C  0.24019134  0.84517264  0.70654985     0.04970
C1512       C  0.19714311  0.81494351  0.69000979    -0.03590
Br1513     Br  0.14154121  0.75750809  0.70574446    -0.03280
H1514       H  0.16072935  0.80201422  0.64907635     0.08880
H1515       H  0.31366926  0.90954020  0.70483312     0.06900
Br1516     Br  0.33403886  0.95386066  0.64851327    -0.03710
C1517       C  0.64218702  0.51380660  0.98195696    -0.10340
C1518       C  0.68274929  0.52256439  0.96415433     0.05850
C1519       C  0.67577408  0.48393462  0.94532998    -0.04110
C1520       C  0.62998748  0.43948069  0.94409033    -0.08560
C1521       C  0.58908292  0.43078257  0.96130615     0.04970
C1522       C  0.59581496  0.46883039  0.98057154    -0.03590
Br1523     Br  0.54181269  0.46338682  0.00373884    -0.03280
H1524       H  0.64581614  0.54268609  0.99621112     0.08880
H1525       H  0.62647362  0.41115871  0.92939317     0.06900
Br1526     Br  0.72753976  0.48793564  0.92071287    -0.03710
C1527       C  0.90646521  0.52792026  0.95617465    -0.10340
C1528       C  0.91583225  0.54942475  0.92906836     0.05850
C1529       C  0.91985392  0.52280653  0.90602281    -0.04110
C1530       C  0.90849400  0.47402011  0.90970422    -0.08560
C1531       C  0.89317368  0.45069273  0.93636721     0.04970
C1532       C  0.89469690  0.47901257  0.96011497    -0.03590
Br1533     Br  0.87405817  0.45158525  0.99754864    -0.03280
H1534       H  0.90290662  0.54725522  0.97398054     0.08880
H1535       H  0.90974759  0.45362545  0.89130810     0.06900
Br1536     Br  0.93605364  0.55013761  0.86854217    -0.03710
C1537       C  0.78928855  0.80139471  0.98319543    -0.10340
C1538       C  0.78480221  0.75687851  0.99296386     0.05850
C1539       C  0.76246694  0.73826113  0.51970993    -0.04110
C1540       C  0.73970873  0.76050266  0.53401106    -0.08560
C1541       C  0.73990874  0.80204632  0.52301908     0.04970
C1542       C  0.76700942  0.82419297  0.99816265    -0.03590
Br1543     Br  0.77033521  0.88181097  0.98243453    -0.03280
H1544       H  0.80821060  0.81738513  0.96327411     0.08880
H1545       H  0.71993810  0.74394081  0.55355318     0.06900
Br1546     Br  0.76165043  0.68351184  0.53883837    -0.03710
C1547       C  0.86700054  0.81951204  0.85096680    -0.10340
C1548       C  0.84847626  0.76836600  0.85478217     0.05850
C1549       C  0.79962733  0.73622427  0.84520446    -0.04110
C1550       C  0.76989187  0.75431944  0.83456644    -0.08560
C1551       C  0.78486211  0.80480177  0.83521671     0.04970
C1552       C  0.83561014  0.83791257  0.84162863    -0.03590
Br1553     Br  0.86275517  0.90768154  0.84068893    -0.03280
H1554       H  0.90399758  0.84544196  0.85886600     0.08880
H1555       H  0.73203919  0.72731837  0.82882205     0.06900
Br1556     Br  0.76385971  0.66832044  0.85520032    -0.03710
C1557       C  0.01563406  0.75240513  0.88771653    -0.10340
C1558       C  0.00491875  0.78664202  0.90037498     0.05850
C1559       C  0.02952697  0.83534425  0.88958196    -0.04110
C1560       C  0.06751105  0.84936352  0.86865316    -0.08560
C1561       C  0.07860017  0.81450250  0.85672439     0.04970
C1562       C  0.04937389  0.76484648  0.86551654    -0.03590
Br1563     Br  0.04957602  0.70953298  0.84774045    -0.03280
H1564       H  0.99529639  0.71406000  0.89398534     0.08880
H1565       H  0.08784585  0.88721489  0.86151407     0.06900
Br1566     Br  0.01223851  0.88347809  0.90153946    -0.03710
C1567       C  0.99831286  0.84210128  0.97877367    -0.10340
C1568       C  0.96044630  0.80247515  0.49445576     0.05850
C1569       C  0.96819950  0.80135605  0.52401459    -0.04110
C1570       C  0.01511571  0.83359597  0.53579279    -0.08560
C1571       C  0.05632136  0.86520258  0.51855872     0.04970
C1572       C  0.04604341  0.87335831  0.99066887    -0.03590
Br1573     Br  0.09650619  0.92647225  0.96875467    -0.03280
H1574       H  0.99199022  0.84701676  0.95683450     0.08880
H1575       H  0.02131047  0.82834681  0.55785680     0.06900
Br1576     Br  0.91774216  0.75496204  0.54943914    -0.03710
C1577       C  0.58353813  0.46817883  0.70663040    -0.10340
C1578       C  0.60948127  0.49488926  0.68297018     0.05850
C1579       C  0.58837836  0.48047169  0.65535322    -0.04110
C1580       C  0.54244022  0.43783075  0.65227521    -0.08560
C1581       C  0.52163011  0.40647006  0.67542642     0.04970
C1582       C  0.54364675  0.42155218  0.70286362    -0.03590
Br1583     Br  0.53608838  0.38021375  0.73457223    -0.03280
H1584       H  0.60049308  0.47887815  0.72758799     0.08880
H1585       H  0.52686785  0.42575296  0.63114223     0.06900
Br1586     Br  0.62248927  0.51113527  0.62049230    -0.03710
C1587       C  0.87052011  0.43685274  0.68826358    -0.10340
C1588       C  0.83019425  0.39091386  0.69450904     0.05850
C1589       C  0.78259400  0.38607522  0.70007407    -0.04110
C1590       C  0.77470814  0.42563953  0.69537964    -0.08560
C1591       C  0.81394440  0.47021422  0.68571567     0.04970
C1592       C  0.86283638  0.47618028  0.68318838    -0.03590
Br1593     Br  0.92024776  0.53354083  0.66823404    -0.03280
H1594       H  0.90684576  0.44071765  0.68361078     0.08880
H1595       H  0.73775358  0.42114951  0.69842105     0.06900
Br1596     Br  0.72591421  0.32530750  0.71190872    -0.03710
C1597       C  0.74706531  0.79457049  0.73865718    -0.10340
C1598       C  0.70890819  0.76841583  0.75884583     0.05850
C1599       C  0.69389348  0.71887214  0.76425161    -0.04110
C1600       C  0.71615926  0.69651323  0.74961660    -0.08560
C1601       C  0.75366445  0.72151099  0.72893017     0.04970
C1602       C  0.76934373  0.77144095  0.72351098    -0.03590
Br1603     Br  0.81996145  0.80962409  0.69596556    -0.03280
H1604       H  0.75940113  0.83295975  0.73457160     0.08880
H1605       H  0.70371519  0.65858384  0.75509841     0.06900
Br1606     Br  0.64571316  0.67900934  0.79277826    -0.03710
C1607       C  0.65188310  0.63541624  0.62842655    -0.10340
C1608       C  0.70405896  0.65702148  0.62990552     0.05850
C1609       C  0.73484914  0.70557092  0.62112414    -0.04110
C1610       C  0.71306579  0.73180953  0.61049582    -0.08560
C1611       C  0.66067675  0.70956327  0.60745037     0.04970
C1612       C  0.62984390  0.66057695  0.61645263    -0.03590
Br1613     Br  0.55793849  0.62653394  0.61452698    -0.03280
H1614       H  0.62804777  0.59904741  0.63698558     0.08880
H1615       H  0.73753739  0.76958027  0.60402216     0.06900
Br1616     Br  0.80638442  0.73794484  0.62455081    -0.03710
C1617       C  0.02470795  0.73435409  0.60627643    -0.10340
C1618       C  0.04818326  0.78483264  0.60637343     0.05850
C1619       C  0.02377095  0.80869207  0.61888134    -0.04110
C1620       C  0.97516603  0.78037990  0.62990687    -0.08560
C1621       C  0.95076893  0.72885228  0.62883451     0.04970
C1622       C  0.97775186  0.70653479  0.61755922    -0.03590
Br1623     Br  0.96227189  0.64021824  0.61892234    -0.03280
H1624       H  0.04335935  0.71584409  0.59710952     0.08880
H1625       H  0.95670303  0.79857772  0.63961693     0.06900
Br1626     Br  0.05446270  0.87893864  0.62253818    -0.03710
C1627       C  0.99217491  0.73374910  0.71189693    -0.10340
C1628       C  0.97648685  0.68333967  0.71163895     0.05850
C1629       C  0.99707770  0.66474003  0.73118318    -0.04110
C1630       C  0.03366025  0.69663932  0.75014250    -0.08560
C1631       C  0.04964056  0.74738582  0.75055620     0.04970
C1632       C  0.02753447  0.76568479  0.73145092    -0.03590
Br1633     Br  0.04060518  0.83244331  0.73163901    -0.03280
H1634       H  0.97438882  0.74801743  0.69807800     0.08880
H1635       H  0.04957714  0.68133172  0.76465915     0.06900
Br1636     Br  0.97457059  0.59582122  0.73390466    -0.03710
C1637       C  0.84460484  0.60324685  0.78856894    -0.10340
C1638       C  0.79675730  0.58647859  0.77774973     0.05850
C1639       C  0.75628529  0.57028381  0.79701800    -0.04110
C1640       C  0.76503356  0.57338571  0.82671369    -0.08560
C1641       C  0.81417657  0.59514369  0.83768472     0.04970
C1642       C  0.85395720  0.60847008  0.81774248    -0.03590
Br1643     Br  0.92376149  0.63874232  0.82693284    -0.03280
H1644       H  0.87599350  0.61612713  0.77392944     0.08880
H1645       H  0.73365935  0.56188499  0.84116019     0.06900
Br1646     Br  0.68976505  0.54939720  0.78390051    -0.03710
C1647       C  0.88276049  0.56677118  0.56220890    -0.10340
C1648       C  0.83686011  0.54756349  0.57649964     0.05850
C1649       C  0.79267099  0.52501522  0.55962544    -0.04110
C1650       C  0.79543053  0.52769144  0.52963380    -0.08560
C1651       C  0.84166848  0.55455003  0.51563822     0.04970
C1652       C  0.88578043  0.57243701  0.53244015    -0.03590
Br1653     Br  0.95207180  0.61194696  0.51706535    -0.03280
H1654       H  0.91702738  0.58215483  0.57410360     0.08880
H1655       H  0.76104279  0.51375524  0.51756510     0.06900
Br1656     Br  0.72692025  0.49328515  0.57639244    -0.03710
loop_ 
_geom_bond_atom_site_label_1 
_geom_bond_atom_site_label_2 
_geom_bond_distance 
_geom_bond_site_symmetry_2 
_ccdc_geom_bond_type 
O1            C9   1.271       .  A
O1          Co21   1.996       .  S
O2           C10   1.265       .  A
O2          Co22   1.962       .  S
O3           C11   1.253       .  A
O3          Co23   1.958       .  S
O4           C12   1.289       .  A
O4          Co24   2.050       .  S
O5           C11   1.254       .  A
O5          Co22   1.998       .  S
O6           C12   1.267       .  A
O6          Co21   1.948       .  S
O7           C10   1.273       .  A
O7          Co24   2.007       .  S
O8            C9   1.268       .  A
O8          Co23   2.009       .  S
C9          C820   1.506       .  S
C10         C773   1.488       .  S
C11         C780   1.448       .  S
C12         C793   1.478       .  S
O13          C26   1.253       .  A
O13         Co21   2.017       .  S
O14          C27   1.265       .  A
O14         Co22   1.874       .  S
O15          C28   1.278       .  A
O15         Co23   2.064       .  S
O16          C29   1.277       .  A
O16         Co24   2.020       .  S
O17          C29   1.272       .  A
O17         Co22   1.985       .  S
O18          C28   1.232       .  A
O18         Co21   1.892       .  S
O19          C26   1.237       .  A
O19         Co24   1.947       .  S
O20          C27   1.278       .  A
O20         Co23   2.026       .  S
Co21         O25   1.948       .  S
Co22         O25   1.922       .  S
Co23         O25   2.165       .  S
Co24         O25   2.015       .  S
C26         C800   1.454       .  S
C27         C750   1.441       .  S
C28         C763   1.465       .  S
C29         C810   1.480       .  S
O30          C38   1.264       .  A
O30         Co50   1.818       .  S
O31          C39   1.246       .  A
O31         Co51   1.948       .  S
O32          C40   1.252       .  A
O32         Co52   1.979       .  S
O33          C41   1.251       .  A
O33         Co53   1.970       .  S
O34          C40   1.268       .  A
O34         Co51   2.020       .  S
O35          C41   1.252       .  A
O35         Co50   1.968       .  S
O36          C39   1.279       .  A
O36         Co53   2.107       .  S
O37          C38   1.338       .  A
O37         Co52   2.236       .  S
C38         C720   1.484       .  S
C39         C690   1.516       .  S
C40         C813   1.508       .  S
C41         C710   1.466       .  S
O42          C55   1.281       .  A
O42         Co50   2.055       .  S
O43          C56   1.260       .  A
O43         Co51   1.983       .  S
O44          C57   1.237       .  A
O44         Co52   1.924       .  S
O45          C58   1.245       .  A
O45         Co53   1.928       .  S
O46          C58   1.290       .  A
O46         Co51   2.116       .  S
O47          C57   1.260       .  A
O47         Co50   2.105       .  S
O48          C55   1.269       .  A
O48         Co53   2.002       .  S
O49          C56   1.271       .  A
O49         Co52   2.017       .  S
Co50         O54   2.021       .  S
Co51         O54   2.094       .  S
Co52         O54   2.087       .  S
Co53         O54   2.082       .  S
C55        C1568   1.504       .  S
C56         C700   1.477       .  S
C57         C730   1.491   1_655  S
C58        C1651   1.500       .  S
O59          C67   1.269       .  A
O59         Co79   1.974       .  S
O60          C68   1.249       .  A
O60         Co80   1.977       .  S
O61          C69   1.275       .  A
O61         Co81   1.935       .  S
O62          C70   1.253       .  A
O62        Co910   1.956       .  S
O63          C69   1.266       .  A
O63         Co80   2.011       .  S
O64          C70   1.264       .  A
O64        Co907   2.000       .  S
O65          C68   1.257   1_556  A
O65         Co82   2.023   1_556  S
O66          C67   1.282       .  A
O66         Co81   2.016       .  S
C67         C743   1.490       .  S
C68        C1481   1.497   1_554  S
C69         C660   1.449   1_565  S
C70         C670   1.475       .  S
O71          C84   1.268       .  A
O71         Co79   1.981       .  S
O72          C85   1.247       .  A
O72         Co80   1.972       .  S
O73          C86   1.245       .  A
O73         Co81   1.931       .  S
O74          C87   1.276       .  A
O74         Co82   1.936       .  S
O75          C87   1.279       .  A
O75         Co80   2.024       .  S
O76          C86   1.277       .  A
O76         Co79   2.000       .  S
O77          C84   1.280       .  A
O77         Co82   2.040       .  S
O78          C85   1.261       .  A
O78         Co81   2.047       .  S
Co79        O892   2.000   1_554  S
Co79         O83   2.041       .  S
Co80         O83   2.210       .  S
Co81         O83   2.019       .  S
Co82        O890   1.956   1_554  S
Co82         O83   1.946       .  S
C84         C643   1.508       .  S
C85         C680   1.506       .  S
C86         C790   1.459       .  S
C87         C633   1.488       .  S
O88          C96   1.287       .  A
O88        Co108   1.960       .  S
O89          C97   1.316       .  A
O89        Co109   2.147       .  S
O90          C98   1.276       .  A
O90        Co110   2.030       .  S
O91          C99   1.268       .  A
O91        Co111   2.035       .  S
O92          C98   1.280       .  A
O92        Co109   2.001       .  S
O93          C99   1.250       .  A
O93        Co108   1.937       .  S
O94          C97   1.261       .  A
O94        Co111   1.825       .  S
O95          C96   1.289       .  A
O95        Co110   1.963       .  S
C96         C803   1.476       .  S
C97         C590   1.482       .  S
C98         C683   1.507       .  S
C99         C600   1.482       .  S
O100        C113   1.306       .  A
O100       Co108   2.105       .  S
O101        C114   1.260       .  A
O101       Co109   1.986       .  S
O102        C115   1.255       .  A
O102       Co110   2.021       .  S
O103        C116   1.273       .  A
O103       Co111   1.995       .  S
O104        C116   1.269       .  A
O104       Co109   1.995       .  S
O105        C115   1.270       .  A
O105       Co108   1.998       .  S
O106        C113   1.258       .  A
O106       Co111   1.932       .  S
O107        C114   1.266       .  A
O107       Co110   1.988       .  S
Co108       O112   1.971       .  S
Co109       O112   2.060       .  S
Co110       O112   2.023       .  S
Co111       O112   1.881       .  S
C113        C673   1.471       .  S
C114        C610   1.476   1_565  S
C115        C733   1.493       .  S
C116        C620   1.479   1_565  S
O117        C125   1.265       .  A
O117       Co137   2.014       .  S
O118        C126   1.267       .  A
O118       Co138   2.007       .  S
O119        C127   1.285       .  A
O119       Co139   2.056       .  S
O120        C128   1.280       .  A
O120       Co968   2.058       .  S
O121        C127   1.264       .  A
O121       Co138   1.963       .  S
O122        C956   1.272       .  A
O122       Co137   1.917   1_556  S
O123        C126   1.272       .  A
O123       Co140   2.035       .  S
O124        C125   1.254       .  A
O124       Co139   1.967       .  S
C125        C640   1.504       .  S
C126        C540   1.500       .  S
C127        C520   1.486       .  S
C128        O950   1.272       .  A
C128        C553   1.471       .  S
O129        C142   1.318       .  A
O129       Co137   2.140       .  S
O130        C143   1.273       .  A
O130       Co138   2.047       .  S
O131        C144   1.271       .  A
O131       Co139   1.984       .  S
O132        C145   1.282       .  A
O132       Co140   1.988       .  S
O133        C145   1.283       .  A
O133       Co138   2.013       .  S
O134        C144   1.304       .  A
O134       Co137   2.085       .  S
O135        C142   1.276       .  A
O135       Co140   1.922       .  S
O136        C143   1.248       .  A
O136       Co139   1.935       .  S
Co137       O141   1.996       .  S
Co138       O141   2.028       .  S
Co139       O141   2.034       .  S
Co140       O948   2.058       .  S
Co140       O141   2.003       .  S
C142        C573   1.491       .  S
C143        C560   1.482       .  S
C144        C580   1.510       .  S
C145        C530   1.483       .  S
O146        C154   1.248       .  A
O146       Co166   1.968       .  S
O147        C155   1.278       .  A
O147       Co167   1.912       .  S
O148        C156   1.286       .  A
O148       Co168   2.046       .  S
O149        C157   1.307       .  A
O149       Co169   2.077       .  S
O150        C156   1.274       .  A
O150       Co167   1.944       .  S
O151        C157   1.270       .  A
O151       Co166   1.959       .  S
O152        C155   1.309       .  A
O152       Co169   2.111       .  S
O153        C154   1.263       .  A
O153       Co168   2.011       .  S
C154        C603   1.477       .  S
C155        C493   1.475       .  S
C156        C470   1.481       .  S
C157        C563   1.466       .  S
O158        C171   1.251       .  A
O158       Co166   1.936       .  S
O159        C172   1.267       .  A
O159       Co167   2.043       .  S
O160        C173   1.261       .  A
O160       Co168   1.925       .  S
O161        C174   1.267       .  A
O161       Co169   1.942       .  S
O162        C174   1.284       .  A
O162       Co167   2.094       .  S
O163        C173   1.294       .  A
O163       Co166   2.074       .  S
O164        C171   1.259       .  A
O164       Co169   1.976       .  S
O165        C172   1.243       .  A
O165       Co168   1.931       .  S
Co166       O170   1.992       .  S
Co167       O170   2.004       .  S
Co168       O170   1.986       .  S
Co169       O170   1.971       .  S
C171        C503   1.467       .  S
C172        C550   1.453       .  S
C173        C513   1.476       .  S
C174        C480   1.482       .  S
O175        C183   1.257       .  A
O175       Co195   2.004       .  S
O176        C184   1.260       .  A
O176       Co196   2.002       .  S
O177        C185   1.287       .  A
O177       Co197   2.036       .  S
O178        C186   1.284       .  A
O178       Co198   2.086       .  S
O179        C185   1.279       .  A
O179       Co196   1.961       .  S
O180        C186   1.245       .  A
O180       Co195   1.971       .  S
O181        C184   1.283       .  A
O181       Co198   2.006       .  S
O182        C183   1.241       .  A
O182       Co197   1.926       .  S
C183        C753   1.444       .  S
C184        C663   1.452       .  S
C185        C440   1.469       .  S
C186        C460   1.481       .  S
O187        C200   1.279       .  A
O187       Co195   1.975       .  S
O188        C201   1.246       .  A
O188       Co196   2.000       .  S
O189        C202   1.262       .  A
O189       Co197   2.022       .  S
O190        C203   1.271       .  A
O190       Co198   2.045       .  S
O191        C203   1.246       .  A
O191       Co196   1.966       .  S
O192        C202   1.261       .  A
O192       Co195   1.996       .  S
O193        C200   1.282       .  A
O193       Co198   2.009       .  S
O194        C201   1.237       .  A
O194       Co197   1.941       .  S
Co195       O199   2.036       .  S
Co196       O199   2.030       .  S
Co197       O199   1.977       .  S
Co198       O199   2.072       .  S
C200        C533   1.480       .  S
C201        C450   1.461       .  S
C202        C490   1.478       .  S
C203        C613   1.469       .  S
O204        C212   1.260       .  A
O204       Co224   2.007       .  S
O205        C213   1.281       .  A
O205       Co225   2.023       .  S
O206        C214   1.299       .  A
O206       Co226   2.108       .  S
O207        C215   1.267       .  A
O207       Co227   2.062       .  S
O208        C214   1.259       .  A
O208       Co225   1.916       .  S
O209        C215   1.242       .  A
O209       Co224   1.931       .  S
O210        C213   1.261       .  A
O210       Co227   1.975       .  S
O211        C212   1.258       .  A
O211       Co226   2.026       .  S
C212        C693   1.515       .  S
C213        C623   1.491       .  S
C214        C430   1.496       .  S
C215        C453   1.471       .  S
O216        C229   1.300       .  A
O216       Co224   2.096       .  S
O217        C230   1.264       .  A
O217       Co225   2.087       .  S
O218        C231   1.261       .  A
O218       Co226   1.959       .  S
O219        C232   1.296       .  A
O219       Co227   2.039       .  S
O220        C232   1.273       .  A
O220       Co225   1.989       .  S
O221        C231   1.275       .  A
O221       Co224   2.048       .  S
O222        C229   1.279       .  A
O222       Co227   1.919       .  S
O223        C230   1.227       .  A
O223       Co226   1.910       .  S
Co224       O228   2.111       .  S
Co225       O228   2.117       .  S
Co226       O228   2.030       .  S
Co227       O228   1.996       .  S
C229        C483   1.492       .  S
C230       C1291   1.496       .  S
C231        C543   1.509       .  S
C232        C650   1.508       .  S
O233        C241   1.272       .  A
O233       Co253   1.878       .  S
O234        C242   1.261       .  A
O234       Co254   2.012       .  S
O235        C243   1.278       .  A
O235       Co255   2.036       .  S
O236        C244   1.301       .  A
O236       Co256   2.117       .  S
O237        C243   1.275       .  A
O237       Co254   1.992       .  S
O238        C244   1.265       .  A
O238       Co253   1.928       .  S
O239        C242   1.237       .  A
O239       Co256   1.953       .  S
O240        C241   1.301       .  A
O240       Co255   2.099       .  S
C241        C783   1.468       .  S
C242        C630   1.481       .  S
C243        C423   1.495       .  S
C244        C523   1.512       .  S
O245       C1086   1.272       .  A
O245       Co253   2.056       .  S
O246        C259   1.263       .  A
O246       Co254   2.000       .  S
O247        C260   1.243       .  A
O247       Co255   1.960       .  S
O248        C261   1.279       .  A
O248       Co256   1.955       .  S
O249        C261   1.294       .  A
O249       Co254   2.060       .  S
O250        C260   1.252       .  A
O250       Co253   2.022       .  S
O251       C1086   1.256       .  A
O251       Co256   1.963       .  S
O252        C259   1.245       .  A
O252       Co255   1.970       .  S
Co253       O257   1.967       .  S
Co254       O257   2.072       .  S
Co255       O257   2.113       .  S
Co256       O257   2.043       .  S
C258       O1073   1.272       .  A
C258       O1079   1.256       .  A
C258        C410   1.484       .  S
C259        C390   1.485       .  S
C260        C713   1.457       .  S
C261        C400   1.495       .  S
O262        C270   1.275       .  A
O262       Co282   1.980       .  S
O263        C271   1.255       .  A
O263       Co283   2.000       .  S
O264        C272   1.300       .  A
O264       Co284   2.014       .  S
O265        C273   1.251       .  A
O265       Co285   1.957       .  S
O266        C272   1.275       .  A
O266       Co283   1.924       .  S
O267        C273   1.268       .  A
O267       Co282   2.046       .  S
O268        C271   1.267       .  A
O268       Co285   2.000       .  S
O269        C270   1.292       .  A
O269       Co284   2.058       .  S
C270        C723   1.512       .  S
C271        C373   1.485       .  S
C272        C380   1.463   1_565  S
C273        C413   1.480       .  S
O274        C287   1.263       .  A
O274       Co282   1.943       .  S
O275        C288   1.250       .  A
O275       Co283   1.967       .  S
O276        C289   1.286       .  A
O276       Co284   2.062       .  S
O277        C290   1.259       .  A
O277       Co285   1.968       .  S
O278        C290   1.257       .  A
O278       Co283   1.971       .  S
O279        C289   1.260       .  A
O279       Co282   1.952       .  S
O280        C287   1.284       .  A
O280       Co285   2.045       .  S
O281        C288   1.276       .  A
O281       Co284   2.089       .  S
Co282       O286   2.010       .  S
Co283       O286   1.975       .  S
Co284       O286   2.082       .  S
Co285       O286   2.042       .  S
C287        C473   1.482       .  S
C288        C420   1.487       .  S
C289        C770   1.472       .  S
C290        C593   1.474       .  S
O291        C299   1.270       .  A
O291       Co311   2.011       .  S
O292        C300   1.272       .  A
O292       Co312   2.007       .  S
O293        C301   1.284       .  A
O293       Co313   2.053       .  S
O294        C302   1.283       .  A
O294       Co314   2.119       .  S
O295        C301   1.260       .  A
O295       Co312   1.937       .  S
O296        C302   1.235       .  A
O296       Co311   1.955       .  S
O297        C300   1.276       .  A
O297       Co314   1.993       .  S
O298        C299   1.244       .  A
O298       Co313   1.922       .  S
C299        C760   1.459       .  S
C300        C383   1.468       .  S
C301        C443   1.491       .  S
C302        C350   1.504       .  S
O303        C316   1.288       .  A
O303       Co311   1.967       .  S
O304        C317   1.271       .  A
O304       Co312   2.049       .  S
O305        C318   1.274       .  A
O305       Co313   2.052       .  S
O306        C319   1.285       .  A
O306       Co314   2.060       .  S
O307        C319   1.254       .  A
O307       Co312   1.936       .  S
O308        C318   1.261       .  A
O308       Co311   2.011       .  S
O309        C316   1.282       .  A
O309       Co314   1.964       .  S
O310        C317   1.240       .  A
O310       Co313   1.914       .  S
Co311       O315   1.998       .  S
Co312       O315   2.058       .  S
Co313       O315   2.003       .  S
Co314       O315   2.034       .  S
C316        C500   1.454       .  S
C317        C360   1.450       .  S
C318        C583   1.529       .  S
C319        C393   1.489       .  S
O320        C328   1.264       .  A
O320       Co340   1.900       .  S
O321        C329   1.310       .  A
O321       Co341   2.147       .  S
O322        C330   1.284       .  A
O322       Co342   2.064       .  S
O323        C331   1.236       .  A
O323      Co1171   1.977       .  S
O324        C330   1.260       .  A
O324       Co341   1.954       .  S
O325       C1159   1.249       .  A
O325       Co340   2.005       .  S
O326        C329   1.261       .  A
O326       Co343   1.852       .  S
O327        C328   1.291       .  A
O327       Co342   2.072       .  S
C328        C703   1.483       .  S
C329        C403   1.475       .  S
C330        C433   1.502       .  S
C331       O1153   1.249       .  A
C331        C363   1.455   1_556  S
O332        C345   1.288       .  A
O332       Co340   2.034       .  S
O333        C346   1.272       .  A
O333       Co341   2.066       .  S
O334        C347   1.259       .  A
O334       Co342   1.943       .  S
O335        C348   1.280       .  A
O335       Co343   2.004       .  S
O336        C348   1.258       .  A
O336       Co341   1.956       .  S
O337        C347   1.289       .  A
O337       Co340   2.051       .  S
O338        C345   1.279       .  A
O338       Co343   2.031       .  S
O339        C346   1.235       .  A
O339       Co342   1.937       .  S
Co340       O344   1.980       .  S
Co341       O344   2.149       .  S
Co342       O344   2.078       .  S
Co343      O1151   1.977       .  S
Co343       O344   1.904       .  S
C345        C570   1.495       .  S
C346        C353   1.486       .  S
C347        C510   1.474       .  S
C348        C370   1.501       .  S
C349        C350   1.399       .  A
C349        C354   1.403       .  A
C349        H356   1.079       .  S
C350        C351   1.422       .  A
C351        C352   1.407       .  A
C351       Br358   1.918       .  S
C352        C353   1.403       .  A
C352        H357   1.084       .  S
C353        C354   1.415       .  A
C354       Br355   1.904       .  S
C359        C360   1.407       .  A
C359        C364   1.399       .  A
C359        H366   1.084       .  S
C360        C361   1.399       .  A
C361        C362   1.390       .  A
C361       Br368   1.903       .  S
C362        C363   1.400       .  A
C362        H367   1.083       .  S
C363        C364   1.404       .  A
C364       Br365   1.916       .  S
C369        C370   1.406       .  A
C369        C374   1.417       .  A
C369        H376   1.083       .  S
C370        C371   1.432       .  A
C371        C372   1.390   1_545  A
C371       Br378   1.928       .  S
C372        C373   1.388       .  A
C372        H377   1.085       .  S
C373        C374   1.418   1_565  A
C374       Br375   1.911   1_545  S
C379        C380   1.391       .  A
C379        C384   1.393       .  A
C379        H386   1.084       .  S
C380        C381   1.421       .  A
C381        C382   1.389       .  A
C381       Br388   1.928       .  S
C382        C383   1.392       .  A
C382        H387   1.084       .  S
C383        C384   1.423       .  A
C384       Br385   1.920       .  S
C389        C390   1.386       .  A
C389        C394   1.380   1_565  A
C389        H396   1.086       .  S
C390        C391   1.411   1_565  A
C391        C392   1.421       .  A
C391       Br398   1.916       .  S
C392        C393   1.414       .  A
C392        H397   1.083       .  S
C393        C394   1.421       .  A
C394       Br395   1.898       .  S
C399        C400   1.417   1_545  A
C399        C404   1.410       .  A
C399        H406   1.083       .  S
C400       C1229   1.416   1_554  A
C401        C402   1.388   1_565  A
C401       C1228   1.416       .  A
C401       Br408   1.919       .  S
C402        C403   1.398       .  A
C402        H407   1.083       .  S
C403       C1232   1.404       .  A
C404       C1231   1.404   1_554  A
C404       Br405   1.915       .  S
C409        C410   1.408       .  A
C409        C414   1.406       .  A
C409        H416   1.079       .  S
C410        C411   1.408       .  A
C411        C412   1.405       .  A
C411       Br418   1.914       .  S
C412        C413   1.406       .  A
C412        H417   1.083       .  S
C413        C414   1.404       .  A
C414       Br415   1.917       .  S
C419        C420   1.398       .  A
C419        C424   1.404       .  A
C419        H426   1.082       .  S
C420        C421   1.414       .  A
C421        C422   1.406       .  A
C421       Br428   1.915       .  S
C422        C423   1.404       .  A
C422        H427   1.084       .  S
C423        C424   1.415       .  A
C424       Br425   1.900       .  S
C429        C430   1.414       .  A
C429        C434   1.408       .  A
C429        H436   1.084       .  S
C430        C431   1.405       .  A
C431        C432   1.407       .  A
C431       Br438   1.909       .  S
C432        C433   1.413       .  A
C432        H437   1.082       .  S
C433        C434   1.411       .  A
C434       Br435   1.919       .  S
C439        C440   1.395       .  A
C439        C444   1.396       .  A
C439        H446   1.084       .  S
C440        C441   1.406       .  A
C441        C442   1.404       .  A
C441       Br448   1.916       .  S
C442        C443   1.409       .  A
C442        H447   1.083       .  S
C443        C444   1.423       .  A
C444       Br445   1.927       .  S
C449        C450   1.404       .  A
C449        C454   1.393       .  A
C449        H456   1.082       .  S
C450        C451   1.401       .  A
C451        C452   1.388       .  A
C451       Br458   1.914       .  S
C452        C453   1.399       .  A
C452        H457   1.070       .  S
C453        C454   1.410       .  A
C454       Br455   1.921       .  S
C459        C460   1.411       .  A
C459        C464   1.414       .  A
C459        H466   1.081       .  S
C460        C461   1.398       .  A
C461        C462   1.393       .  A
C461       Br468   1.921       .  S
C462        C463   1.414       .  A
C462        H467   1.080       .  S
C463       C1058   1.496       .  S
C463        C464   1.407       .  A
C464       Br465   1.908       .  S
C469        C470   1.401       .  A
C469        C474   1.387       .  A
C469        H476   1.084       .  S
C470        C471   1.415       .  A
C471        C472   1.404       .  A
C471       Br478   1.921       .  S
C472        C473   1.406       .  A
C472        H477   1.083       .  S
C473        C474   1.416       .  A
C474       Br475   1.922       .  S
C479        C480   1.398       .  A
C479        C484   1.384       .  A
C479        H486   1.078       .  S
C480        C481   1.408       .  A
C481        C482   1.416       .  A
C481       Br488   1.913       .  S
C482        C483   1.415       .  A
C482        H487   1.083       .  S
C483        C484   1.415       .  A
C484       Br485   1.925       .  S
C489        C490   1.413       .  A
C489        C494   1.401       .  A
C489        H496   1.083       .  S
C490        C491   1.406       .  A
C491        C492   1.391       .  A
C491       Br498   1.922       .  S
C492        C493   1.408       .  A
C492        H497   1.082       .  S
C493        C494   1.404       .  A
C494       Br495   1.918       .  S
C499        C500   1.393   1_455  A
C499        C504   1.381       .  A
C499        H506   1.085       .  S
C500        C501   1.407   1_655  A
C501        C502   1.398       .  A
C501       Br508   1.915   1_455  S
C502        C503   1.404       .  A
C502        H507   1.083       .  S
C503        C504   1.417       .  A
C504       Br505   1.928       .  S
C509        C510   1.398       .  A
C509        C514   1.391   1_655  A
C509        H516   1.084       .  S
C510        C511   1.411   1_655  A
C511        C512   1.405       .  A
C511       Br518   1.916       .  S
C512        C513   1.407       .  A
C512        H517   1.084       .  S
C513        C514   1.408       .  A
C514       Br515   1.897       .  S
C519        C520   1.408       .  A
C519        C524   1.414       .  A
C519        H526   1.083       .  S
C520        C521   1.402       .  A
C521        C522   1.400       .  A
C521       Br528   1.919       .  S
C522        C523   1.417       .  A
C522        H527   1.083       .  S
C523        C524   1.416       .  A
C524       Br525   1.911       .  S
C529        C530   1.394       .  A
C529        C534   1.382       .  A
C529        H536   1.069       .  S
C530        C531   1.415       .  A
C531        C532   1.418       .  A
C531       Br538   1.916       .  S
C532        C533   1.410       .  A
C532        H537   1.083       .  S
C533        C534   1.404       .  A
C534       Br535   1.914       .  S
C539        C544   1.417       .  A
C539       C1368   1.409       .  A
C539        H546   1.082       .  S
C540        C541   1.408       .  A
C540       C1367   1.409   1_554  A
C541        C542   1.398       .  A
C541       Br548   1.907       .  S
C542       C1371   1.408   1_554  A
C542        H547   1.083       .  S
C543        C544   1.422       .  A
C543       C1370   1.408       .  A
C544       Br545   1.920       .  S
C549        C550   1.407       .  A
C549        C554   1.403       .  A
C549        H556   1.084       .  S
C550        C551   1.405       .  A
C551        C552   1.392       .  A
C551       Br558   1.916       .  S
C552        C553   1.404       .  A
C552        H557   1.084       .  S
C553        C554   1.409       .  A
C554       Br555   1.919       .  S
C559        C560   1.407       .  A
C559        C564   1.407       .  A
C559        H566   1.082       .  S
C560        C561   1.419       .  A
C561        C562   1.388       .  A
C561       Br568   1.927       .  S
C562        C563   1.394       .  A
C562        H567   1.083       .  S
C563        C564   1.406       .  A
C564       Br565   1.915       .  S
C569        C574   1.410   1_655  A
C569       C1398   1.407   1_554  A
C569        H576   1.084       .  S
C570        C571   1.409   1_655  A
C570       C1397   1.407       .  A
C571        C572   1.405       .  A
C571       Br578   1.905       .  S
C572       C1401   1.403       .  A
C572        H577   1.084       .  S
C573        C574   1.410       .  A
C573       C1400   1.403   1_554  A
C574       Br575   1.907       .  S
C579        C580   1.404       .  A
C579        C584   1.409       .  A
C579        H586   1.083       .  S
C580        C581   1.412       .  A
C581        C582   1.422   1_455  A
C581       Br588   1.912       .  S
C582        C583   1.418       .  A
C582        H587   1.083       .  S
C583        C584   1.424   1_655  A
C584       Br585   1.917       .  S
C589        C590   1.402       .  A
C589        C594   1.400       .  A
C589        H596   1.083       .  S
C590        C591   1.424       .  A
C591        C592   1.392       .  A
C591       Br598   1.928       .  S
C592        C593   1.396       .  A
C592        H597   1.084       .  S
C593        C594   1.411       .  A
C594       Br595   1.911       .  S
C599        C600   1.403       .  A
C599        C604   1.405       .  A
C599        H606   1.083       .  S
C600        C601   1.417       .  A
C601        C602   1.391       .  A
C601       Br608   1.915       .  S
C602        C603   1.395       .  A
C602        H607   1.084       .  S
C603        C604   1.416       .  A
C604       Br605   1.917       .  S
C609        C610   1.415       .  A
C609        C614   1.412       .  A
C609        H616   1.083       .  S
C610        C611   1.416       .  A
C611        C612   1.372       .  A
C611       Br618   1.933       .  S
C612        C613   1.397       .  A
C612        H617   1.083       .  S
C613        C614   1.406       .  A
C614       Br615   1.914       .  S
C619        C620   1.398       .  A
C619        C624   1.399       .  A
C619        H626   1.084       .  S
C620        C621   1.410       .  A
C621        C622   1.405       .  A
C621       Br628   1.910   1_545  S
C622        C623   1.403       .  A
C622        H627   1.083       .  S
C623        C624   1.421       .  A
C624       Br625   1.924       .  S
C629        C630   1.395       .  A
C629        C634   1.397       .  A
C629        H636   1.084       .  S
C630        C631   1.423       .  A
C631        C632   1.396       .  A
C631       Br638   1.928   1_554  S
C632        C633   1.398       .  A
C632        H637   1.083   1_554  S
C633        C634   1.427       .  A
C634       Br635   1.926       .  S
C639        C640   1.415       .  A
C639        C644   1.409       .  A
C639        H646   1.083       .  S
C640        C641   1.408       .  A
C641        C642   1.409       .  A
C641       Br648   1.917       .  S
C642        C643   1.417       .  A
C642        H647   1.083       .  S
C643        C644   1.409       .  A
C644       Br645   1.910       .  S
C649        C650   1.420       .  A
C649        C654   1.404       .  A
C649        H656   1.080       .  S
C650        C651   1.405       .  A
C651       C1480   1.416       .  A
C651      Br1486   1.910       .  S
C652       C1479   1.416   1_554  A
C652       C1481   1.416   1_544  A
C652        H657   1.082       .  S
C653        C896   1.497       .  S
C653        C654   1.400   1_565  A
C653       C1480   1.416   1_565  A
C654       Br655   1.919   1_545  S
Br658      C1479   1.910   1_554  S
C659        C660   1.389       .  A
C659        C664   1.381       .  A
C659        H666   1.085   1_545  S
C660        C661   1.413       .  A
C661        C662   1.391       .  A
C661       Br668   1.917       .  S
C662        C663   1.397       .  A
C662        H667   1.082       .  S
C663        C664   1.404       .  A
C664       Br665   1.886       .  S
C669        C670   1.406       .  A
C669        C674   1.401       .  A
C669        H676   1.084       .  S
C670        C671   1.406       .  A
C671        C672   1.392       .  A
C671       Br678   1.909       .  S
C672        C673   1.397       .  A
C672        H677   1.073       .  S
C673        C674   1.410       .  A
C674       Br675   1.918       .  S
C679        C680   1.406       .  A
C679        C684   1.413       .  A
C679        H686   1.084       .  S
C680        C681   1.418       .  A
C681        C682   1.411       .  A
C681       Br688   1.920       .  S
C682        C683   1.407       .  A
C682        H687   1.084       .  S
C683        C684   1.417       .  A
C684       Br685   1.910       .  S
C689        C690   1.409       .  A
C689        C694   1.423       .  A
C689        H696   1.083       .  S
C690        C691   1.423       .  A
C691        C692   1.405       .  A
C691       Br698   1.918       .  S
C692        C693   1.402       .  A
C692        H697   1.084       .  S
C693        C694   1.424       .  A
C694       Br695   1.918       .  S
C699        C700   1.402       .  A
C699        C704   1.400       .  A
C699        H706   1.067       .  S
C700        C701   1.405       .  A
C701        C702   1.399       .  A
C701       Br708   1.912       .  S
C702        C703   1.408       .  A
C702        H707   1.084       .  S
C703        C704   1.408       .  A
C704       Br705   1.920       .  S
C709        C710   1.409       .  A
C709        C714   1.398       .  A
C709        H716   1.083       .  S
C710       C1539   1.410       .  A
C711        C712   1.380       .  A
C711       C1538   1.410   1_554  A
C711       Br718   1.928       .  S
C712        C713   1.399       .  A
C712        H717   1.080       .  S
C713       C1542   1.400   1_554  A
C714       C1541   1.400       .  A
C714       Br715   1.907       .  S
C719        C720   1.420       .  A
C719        C724   1.421       .  A
C719        H726   1.083       .  S
C720        C721   1.404       .  A
C721        C722   1.390       .  A
C721       Br728   1.905       .  S
C722        C723   1.410       .  A
C722        H727   1.079       .  S
C723        C724   1.412       .  A
C724       Br725   1.912       .  S
C729        C730   1.399       .  A
C729        C734   1.381       .  A
C729        H736   1.083   1_455  S
C730        C731   1.418       .  A
C731        C732   1.417       .  A
C731       Br738   1.913       .  S
C732        C733   1.409       .  A
C732        H737   1.083       .  S
C733        C734   1.417       .  A
C734       Br735   1.922       .  S
C739        C744   1.414   1_655  A
C739       C1568   1.415       .  A
C739        H746   1.074       .  S
C740        C883   1.504       .  S
C740        C741   1.412   1_556  A
C740       C1567   1.415       .  A
C741        C742   1.400   1_655  A
C741       Br748   1.924       .  S
C742        C743   1.411       .  A
C742        H747   1.081       .  S
C743       C1572   1.402   1_554  A
C744       C1571   1.402       .  A
C744       Br745   1.915       .  S
C749        C750   1.381       .  A
C749        C754   1.373       .  A
C749        H756   1.086       .  S
C750        C751   1.419       .  A
C751        C752   1.387       .  A
C751       Br758   1.923       .  S
C752        C753   1.390       .  A
C752        H757   1.084       .  S
C753        C754   1.422       .  A
C754       Br755   1.912       .  S
C759        C760   1.385       .  A
C759        C764   1.387       .  A
C759        H766   1.085       .  S
C760        C761   1.419       .  A
C761        C762   1.395       .  A
C761       Br768   1.916       .  S
C762        C763   1.391       .  A
C762        H767   1.083       .  S
C763        C764   1.426       .  A
C764       Br765   1.919       .  S
C769        C770   1.410       .  A
C769        C774   1.410       .  A
C769        H776   1.083       .  S
C770        C771   1.405       .  A
C771        C772   1.379       .  A
C771       Br778   1.925       .  S
C772        C773   1.409       .  A
C772        H777   1.083       .  S
C773        C774   1.412       .  A
C774       Br775   1.916       .  S
C779        C780   1.400       .  A
C779        C784   1.391       .  A
C779        H786   1.080       .  S
C780        C781   1.396       .  A
C781        C782   1.389       .  A
C781       Br788   1.919       .  S
C782        C783   1.410       .  A
C782        H787   1.083       .  S
C783        C784   1.409       .  A
C784       Br785   1.922       .  S
C789        C790   1.373       .  A
C789        C794   1.369   1_455  A
C789        H796   1.085       .  S
C790        C791   1.421       .  A
C791        C792   1.403   1_455  A
C791       Br798   1.921       .  S
C792        C793   1.401       .  A
C792        H797   1.083       .  S
C793        C794   1.425       .  A
C794       Br795   1.887       .  S
C799        C800   1.402       .  A
C799        C804   1.394   1_655  A
C799        H806   1.081       .  S
C800        C801   1.400       .  A
C801        C802   1.392   1_655  A
C801       Br808   1.915       .  S
C802        C803   1.411       .  A
C802        H807   1.083       .  S
C803        C804   1.412       .  A
C804       Br805   1.923       .  S
C809        C810   1.392       .  A
C809        C814   1.392       .  A
C809        H816   1.085       .  S
C810        C811   1.412       .  A
C811        C812   1.414       .  A
C811       Br818   1.916       .  S
C812        C813   1.412       .  A
C812        H817   1.083       .  S
C813        C814   1.427       .  A
C814       Br815   1.918       .  S
C819        C820   1.399       .  A
C819        C824   1.406       .  A
C819        H826   1.074       .  S
C820        C821   1.422       .  A
C821        C822   1.410       .  A
C821       Br828   1.922       .  S
C822        C823   1.404       .  A
C822        H827   1.084       .  S
C823        C886   1.500   1_554  S
C823        C824   1.424       .  A
C824       Br825   1.923       .  S
O829        C837   1.271       .  A
O829       Co849   1.996       .  S
O830        C838   1.265       .  A
O830       Co850   1.962       .  S
O831        C839   1.253       .  A
O831       Co851   1.958       .  S
O832        C840   1.289       .  A
O832       Co852   2.050       .  S
O833        C839   1.254       .  A
O833       Co850   1.998       .  S
O834        C840   1.267       .  A
O834       Co849   1.948       .  S
O835        C838   1.273       .  A
O835       Co852   2.007       .  S
O836        C837   1.268       .  A
O836       Co851   2.009       .  S
C837       C1648   1.506       .  S
C838       C1601   1.488       .  S
C839       C1608   1.448       .  S
C840       C1621   1.478       .  S
O841        C854   1.253       .  A
O841       Co849   2.017       .  S
O842        C855   1.265       .  A
O842       Co850   1.874       .  S
O843        C856   1.278       .  A
O843       Co851   2.064       .  S
O844        C857   1.277       .  A
O844       Co852   2.020       .  S
O845        C857   1.272       .  A
O845       Co850   1.985       .  S
O846        C856   1.232       .  A
O846       Co849   1.892       .  S
O847        C854   1.237       .  A
O847       Co852   1.947       .  S
O848        C855   1.278       .  A
O848       Co851   2.026       .  S
Co849       O853   1.948       .  S
Co850       O853   1.922       .  S
Co851       O853   2.165       .  S
Co852       O853   2.015       .  S
C854       C1628   1.454       .  S
C855       C1578   1.441       .  S
C856       C1591   1.465       .  S
C857       C1638   1.480       .  S
O858        C866   1.264       .  A
O858       Co878   1.818       .  S
O859        C867   1.246       .  A
O859       Co879   1.948       .  S
O860        C868   1.252       .  A
O860       Co880   1.979       .  S
O861        C869   1.251       .  A
O861       Co881   1.970       .  S
O862        C868   1.268       .  A
O862       Co879   2.020       .  S
O863        C869   1.252       .  A
O863       Co878   1.968       .  S
O864        C867   1.279       .  A
O864       Co881   2.107       .  S
O865        C866   1.338       .  A
O865       Co880   2.236       .  S
C866       C1548   1.484       .  S
C867       C1518   1.516       .  S
C868       C1641   1.508       .  S
C869       C1538   1.466       .  S
O870        C883   1.281       .  A
O870       Co878   2.055       .  S
O871        C884   1.260       .  A
O871       Co879   1.983       .  S
O872        C885   1.237       .  A
O872       Co880   1.924       .  S
O873        C886   1.245       .  A
O873       Co881   1.928       .  S
O874        C886   1.290       .  A
O874       Co879   2.116       .  S
O875        C885   1.260       .  A
O875       Co878   2.105       .  S
O876        C883   1.269       .  A
O876       Co881   2.002       .  S
O877        C884   1.271       .  A
O877       Co880   2.017       .  S
Co878       O882   2.021       .  S
Co879       O882   2.094       .  S
Co880       O882   2.087       .  S
Co881       O882   2.082       .  S
C884       C1528   1.477       .  S
C885       C1558   1.491   1_655  S
O887        C895   1.269       .  A
O887       Co907   1.974       .  S
O888        C896   1.249       .  A
O888       Co908   1.977       .  S
O889        C897   1.275       .  A
O889       Co909   1.935       .  S
O890        C898   1.253       .  A
O891        C897   1.266       .  A
O891       Co908   2.011       .  S
O892        C898   1.264       .  A
O893        C896   1.257       .  A
O893       Co910   2.023       .  S
O894        C895   1.282       .  A
O894       Co909   2.016       .  S
C895       C1571   1.490       .  S
C897       C1488   1.449   1_565  S
C898       C1498   1.475       .  S
O899        C912   1.268       .  A
O899       Co907   1.981       .  S
O900        C913   1.247       .  A
O900       Co908   1.972       .  S
O901        C914   1.245       .  A
O901       Co909   1.931       .  S
O902        C915   1.276       .  A
O902       Co910   1.936       .  S
O903        C915   1.279       .  A
O903       Co908   2.024       .  S
O904        C914   1.277       .  A
O904       Co907   2.000       .  S
O905        C912   1.280       .  A
O905       Co910   2.040       .  S
O906        C913   1.261       .  A
O906       Co909   2.047       .  S
Co907       O911   2.041       .  S
Co908       O911   2.210       .  S
Co909       O911   2.019       .  S
Co910       O911   1.946       .  S
C912       C1471   1.508       .  S
C913       C1508   1.506       .  S
C914       C1618   1.459       .  S
C915       C1461   1.488       .  S
O916        C924   1.287       .  A
O916       Co936   1.960       .  S
O917        C925   1.316       .  A
O917       Co937   2.147       .  S
O918        C926   1.276       .  A
O918       Co938   2.030       .  S
O919        C927   1.268       .  A
O919       Co939   2.035       .  S
O920        C926   1.280       .  A
O920       Co937   2.001       .  S
O921        C927   1.250       .  A
O921       Co936   1.937       .  S
O922        C925   1.261       .  A
O922       Co939   1.825       .  S
O923        C924   1.289       .  A
O923       Co938   1.963       .  S
C924       C1631   1.476       .  S
C925       C1418   1.482       .  S
C926       C1511   1.507       .  S
C927       C1428   1.482       .  S
O928        C941   1.306       .  A
O928       Co936   2.105       .  S
O929        C942   1.260       .  A
O929       Co937   1.986       .  S
O930        C943   1.255       .  A
O930       Co938   2.021       .  S
O931        C944   1.273       .  A
O931       Co939   1.995       .  S
O932        C944   1.269       .  A
O932       Co937   1.995       .  S
O933        C943   1.270       .  A
O933       Co936   1.998       .  S
O934        C941   1.258       .  A
O934       Co939   1.932       .  S
O935        C942   1.266       .  A
O935       Co938   1.988       .  S
Co936       O940   1.971       .  S
Co937       O940   2.060       .  S
Co938       O940   2.023       .  S
Co939       O940   1.881       .  S
C941       C1501   1.471       .  S
C942       C1438   1.476   1_565  S
C943       C1561   1.493       .  S
C944       C1448   1.479   1_565  S
O945        C953   1.265       .  A
O945       Co965   2.014       .  S
O946        C954   1.267       .  A
O946       Co966   2.007       .  S
O947        C955   1.285       .  A
O947       Co967   2.056       .  S
O948        C956   1.280   1_554  A
O949        C955   1.264       .  A
O949       Co966   1.963       .  S
O950       Co965   1.917       .  S
O951        C954   1.272       .  A
O951       Co968   2.035       .  S
O952        C953   1.254       .  A
O952       Co967   1.967       .  S
C953       C1468   1.504       .  S
C954       C1368   1.500       .  S
C955       C1348   1.486       .  S
C956       C1381   1.471       .  S
O957        C970   1.318       .  A
O957       Co965   2.140       .  S
O958        C971   1.273       .  A
O958       Co966   2.047       .  S
O959        C972   1.271       .  A
O959       Co967   1.984       .  S
O960        C973   1.282       .  A
O960       Co968   1.988       .  S
O961        C973   1.283       .  A
O961       Co966   2.013       .  S
O962        C972   1.304       .  A
O962       Co965   2.085       .  S
O963        C970   1.276       .  A
O963       Co968   1.922       .  S
O964        C971   1.248       .  A
O964       Co967   1.935       .  S
Co965       O969   1.996       .  S
Co966       O969   2.028       .  S
Co967       O969   2.034       .  S
Co968       O969   2.003       .  S
C970       C1401   1.491       .  S
C971       C1388   1.482       .  S
C972       C1408   1.510       .  S
C973       C1358   1.483       .  S
O974        C982   1.248       .  A
O974       Co994   1.968       .  S
O975        C983   1.278       .  A
O975       Co995   1.912       .  S
O976        C984   1.286       .  A
O976       Co996   2.046       .  S
O977        C985   1.307       .  A
O977       Co997   2.077       .  S
O978        C984   1.274       .  A
O978       Co995   1.944       .  S
O979        C985   1.270       .  A
O979       Co994   1.959       .  S
O980        C983   1.309       .  A
O980       Co997   2.111       .  S
O981        C982   1.263       .  A
O981       Co996   2.011       .  S
C982       C1431   1.477       .  S
C983       C1321   1.475       .  S
C984       C1298   1.481       .  S
C985       C1391   1.466       .  S
O986        C999   1.251       .  A
O986       Co994   1.936       .  S
O987       C1000   1.267       .  A
O987       Co995   2.043       .  S
O988       C1001   1.261       .  A
O988       Co996   1.925       .  S
O989       C1002   1.267       .  A
O989       Co997   1.942       .  S
O990       C1002   1.284       .  A
O990       Co995   2.094       .  S
O991       C1001   1.294       .  A
O991       Co994   2.074       .  S
O992        C999   1.259       .  A
O992       Co997   1.976       .  S
O993       C1000   1.243       .  A
O993       Co996   1.931       .  S
Co994       O998   1.992       .  S
Co995       O998   2.004       .  S
Co996       O998   1.986       .  S
Co997       O998   1.971       .  S
C999       C1331   1.467       .  S
C1000      C1378   1.453       .  S
C1001      C1341   1.476       .  S
C1002      C1308   1.482       .  S
O1003      C1011   1.257       .  A
O1003     Co1023   2.004       .  S
O1004      C1012   1.260       .  A
O1004     Co1024   2.002       .  S
O1005      C1013   1.287       .  A
O1005     Co1025   2.036       .  S
O1006      C1014   1.284       .  A
O1006     Co1026   2.086       .  S
O1007      C1013   1.279       .  A
O1007     Co1024   1.961       .  S
O1008      C1014   1.245       .  A
O1008     Co1023   1.971       .  S
O1009      C1012   1.283       .  A
O1009     Co1026   2.006       .  S
O1010      C1011   1.241       .  A
O1010     Co1025   1.926       .  S
C1011      C1581   1.444       .  S
C1012      C1491   1.452       .  S
C1013      C1268   1.469       .  S
C1014      C1288   1.481       .  S
O1015      C1028   1.279       .  A
O1015     Co1023   1.975       .  S
O1016      C1029   1.246       .  A
O1016     Co1024   2.000       .  S
O1017      C1030   1.262       .  A
O1017     Co1025   2.022       .  S
O1018      C1031   1.271       .  A
O1018     Co1026   2.045       .  S
O1019      C1031   1.246       .  A
O1019     Co1024   1.966       .  S
O1020      C1030   1.261       .  A
O1020     Co1023   1.996       .  S
O1021      C1028   1.282       .  A
O1021     Co1026   2.009       .  S
O1022      C1029   1.237       .  A
O1022     Co1025   1.941       .  S
Co1023     O1027   2.036       .  S
Co1024     O1027   2.030       .  S
Co1025     O1027   1.977       .  S
Co1026     O1027   2.072       .  S
C1028      C1361   1.480       .  S
C1029      C1278   1.461       .  S
C1030      C1318   1.478       .  S
C1031      C1441   1.469       .  S
O1032      C1040   1.260       .  A
O1032     Co1052   2.007       .  S
O1033      C1041   1.281       .  A
O1033     Co1053   2.023       .  S
O1034      C1042   1.299       .  A
O1034     Co1054   2.108       .  S
O1035      C1043   1.267       .  A
O1035     Co1055   2.062       .  S
O1036      C1042   1.259       .  A
O1036     Co1053   1.916       .  S
O1037      C1043   1.242       .  A
O1037     Co1052   1.931       .  S
O1038      C1041   1.261       .  A
O1038     Co1055   1.975       .  S
O1039      C1040   1.258       .  A
O1039     Co1054   2.026       .  S
C1040      C1521   1.515       .  S
C1041      C1451   1.491       .  S
C1042      C1258   1.496       .  S
C1043      C1281   1.471       .  S
O1044      C1057   1.300       .  A
O1044     Co1052   2.096       .  S
O1045      C1058   1.264   1_556  A
O1045     Co1053   2.087       .  S
O1046      C1059   1.261       .  A
O1046     Co1054   1.959       .  S
O1047      C1060   1.296       .  A
O1047     Co1055   2.039       .  S
O1048      C1060   1.273       .  A
O1048     Co1053   1.989       .  S
O1049      C1059   1.275       .  A
O1049     Co1052   2.048       .  S
O1050      C1057   1.279       .  A
O1050     Co1055   1.919       .  S
O1051      C1058   1.227   1_556  A
O1051     Co1054   1.910       .  S
Co1052     O1056   2.111       .  S
Co1053     O1056   2.117       .  S
Co1054     O1056   2.030       .  S
Co1055     O1056   1.996       .  S
C1057      C1311   1.492       .  S
C1059      C1371   1.509       .  S
C1060      C1478   1.508       .  S
O1061      C1069   1.272       .  A
O1061     Co1081   1.878       .  S
O1062      C1070   1.261       .  A
O1062     Co1082   2.012       .  S
O1063      C1071   1.278       .  A
O1063     Co1083   2.036       .  S
O1064      C1072   1.301       .  A
O1064     Co1084   2.117       .  S
O1065      C1071   1.275       .  A
O1065     Co1082   1.992       .  S
O1066      C1072   1.265       .  A
O1066     Co1081   1.928       .  S
O1067      C1070   1.237       .  A
O1067     Co1084   1.953       .  S
O1068      C1069   1.301       .  A
O1068     Co1083   2.099       .  S
C1069      C1611   1.468       .  S
C1070      C1458   1.481       .  S
C1071      C1251   1.495       .  S
C1072      C1351   1.512       .  S
O1073     Co1081   2.056       .  S
O1074      C1087   1.263       .  A
O1074     Co1082   2.000       .  S
O1075      C1088   1.243       .  A
O1075     Co1083   1.960       .  S
O1076      C1089   1.279       .  A
O1076     Co1084   1.955       .  S
O1077      C1089   1.294       .  A
O1077     Co1082   2.060       .  S
O1078      C1088   1.252       .  A
O1078     Co1081   2.022       .  S
O1079     Co1084   1.963       .  S
O1080      C1087   1.245       .  A
O1080     Co1083   1.970       .  S
Co1081     O1085   1.967       .  S
Co1082     O1085   2.072       .  S
Co1083     O1085   2.113       .  S
Co1084     O1085   2.043       .  S
C1086      C1238   1.484   1_554  S
C1087      C1218   1.485       .  S
C1088      C1541   1.457       .  S
C1089      C1228   1.495       .  S
O1090      C1098   1.275       .  A
O1090     Co1110   1.980       .  S
O1091      C1099   1.255       .  A
O1091     Co1111   2.000       .  S
O1092      C1100   1.300       .  A
O1092     Co1112   2.014       .  S
O1093      C1101   1.251       .  A
O1093     Co1113   1.957       .  S
O1094      C1100   1.275       .  A
O1094     Co1111   1.924       .  S
O1095      C1101   1.268       .  A
O1095     Co1110   2.046       .  S
O1096      C1099   1.267       .  A
O1096     Co1113   2.000       .  S
O1097      C1098   1.292       .  A
O1097     Co1112   2.058       .  S
C1098      C1551   1.512       .  S
C1099      C1201   1.485       .  S
C1100      C1208   1.463   1_565  S
C1101      C1241   1.480       .  S
O1102      C1115   1.263       .  A
O1102     Co1110   1.943       .  S
O1103      C1116   1.250       .  A
O1103     Co1111   1.967       .  S
O1104      C1117   1.286       .  A
O1104     Co1112   2.062       .  S
O1105      C1118   1.259       .  A
O1105     Co1113   1.968       .  S
O1106      C1118   1.257       .  A
O1106     Co1111   1.971       .  S
O1107      C1117   1.260       .  A
O1107     Co1110   1.952       .  S
O1108      C1115   1.284       .  A
O1108     Co1113   2.045       .  S
O1109      C1116   1.276       .  A
O1109     Co1112   2.089       .  S
Co1110     O1114   2.010       .  S
Co1111     O1114   1.975       .  S
Co1112     O1114   2.082       .  S
Co1113     O1114   2.042       .  S
C1115      C1301   1.482       .  S
C1116      C1248   1.487       .  S
C1117      C1598   1.472       .  S
C1118      C1421   1.474       .  S
O1119      C1127   1.270       .  A
O1119     Co1139   2.011       .  S
O1120      C1128   1.272       .  A
O1120     Co1140   2.007       .  S
O1121      C1129   1.284       .  A
O1121     Co1141   2.053       .  S
O1122      C1130   1.283       .  A
O1122     Co1142   2.119       .  S
O1123      C1129   1.260       .  A
O1123     Co1140   1.937       .  S
O1124      C1130   1.235       .  A
O1124     Co1139   1.955       .  S
O1125      C1128   1.276       .  A
O1125     Co1142   1.993       .  S
O1126      C1127   1.244       .  A
O1126     Co1141   1.922       .  S
C1127      C1588   1.459       .  S
C1128      C1211   1.468       .  S
C1129      C1271   1.491       .  S
C1130      C1178   1.504       .  S
O1131      C1144   1.288       .  A
O1131     Co1139   1.967       .  S
O1132      C1145   1.271       .  A
O1132     Co1140   2.049       .  S
O1133      C1146   1.274       .  A
O1133     Co1141   2.052       .  S
O1134      C1147   1.285       .  A
O1134     Co1142   2.060       .  S
O1135      C1147   1.254       .  A
O1135     Co1140   1.936       .  S
O1136      C1146   1.261       .  A
O1136     Co1139   2.011       .  S
O1137      C1144   1.282       .  A
O1137     Co1142   1.964       .  S
O1138      C1145   1.240       .  A
O1138     Co1141   1.914       .  S
Co1139     O1143   1.998       .  S
Co1140     O1143   2.058       .  S
Co1141     O1143   2.003       .  S
Co1142     O1143   2.034       .  S
C1144      C1328   1.454       .  S
C1145      C1188   1.450       .  S
C1146      C1411   1.529       .  S
C1147      C1221   1.489       .  S
O1148      C1156   1.264       .  A
O1148     Co1168   1.900       .  S
O1149      C1157   1.310       .  A
O1149     Co1169   2.147       .  S
O1150      C1158   1.284       .  A
O1150     Co1170   2.064       .  S
O1151      C1159   1.236       .  A
O1152      C1158   1.260       .  A
O1152     Co1169   1.954       .  S
O1153     Co1168   2.005       .  S
O1154      C1157   1.261       .  A
O1154     Co1171   1.852       .  S
O1155      C1156   1.291       .  A
O1155     Co1170   2.072       .  S
C1156      C1531   1.483       .  S
C1157      C1231   1.475       .  S
C1158      C1261   1.502       .  S
C1159      C1191   1.455       .  S
O1160      C1173   1.288       .  A
O1160     Co1168   2.034       .  S
O1161      C1174   1.272       .  A
O1161     Co1169   2.066       .  S
O1162      C1175   1.259       .  A
O1162     Co1170   1.943       .  S
O1163      C1176   1.280       .  A
O1163     Co1171   2.004       .  S
O1164      C1176   1.258       .  A
O1164     Co1169   1.956       .  S
O1165      C1175   1.289       .  A
O1165     Co1168   2.051       .  S
O1166      C1173   1.279       .  A
O1166     Co1171   2.031       .  S
O1167      C1174   1.235       .  A
O1167     Co1170   1.937       .  S
Co1168     O1172   1.980       .  S
Co1169     O1172   2.149       .  S
Co1170     O1172   2.078       .  S
Co1171     O1172   1.904       .  S
C1173      C1398   1.495       .  S
C1174      C1181   1.486       .  S
C1175      C1338   1.474       .  S
C1176      C1198   1.501       .  S
C1177      C1178   1.399       .  A
C1177      C1182   1.403       .  A
C1177      H1184   1.079       .  S
C1178      C1179   1.422       .  A
C1179      C1180   1.407       .  A
C1179     Br1186   1.918       .  S
C1180      C1181   1.403       .  A
C1180      H1185   1.084       .  S
C1181      C1182   1.415       .  A
C1182     Br1183   1.904       .  S
C1187      C1188   1.407       .  A
C1187      C1192   1.399       .  A
C1187      H1194   1.084       .  S
C1188      C1189   1.399       .  A
C1189      C1190   1.390       .  A
C1189     Br1196   1.903       .  S
C1190      C1191   1.400       .  A
C1190      H1195   1.083       .  S
C1191      C1192   1.404       .  A
C1192     Br1193   1.916       .  S
C1197      C1198   1.406       .  A
C1197      C1202   1.417       .  A
C1197      H1204   1.083       .  S
C1198      C1199   1.432       .  A
C1199      C1200   1.390   1_545  A
C1199     Br1206   1.928       .  S
C1200      C1201   1.388       .  A
C1200      H1205   1.085       .  S
C1201      C1202   1.418   1_565  A
C1202     Br1203   1.911   1_545  S
C1207      C1208   1.391       .  A
C1207      C1212   1.393       .  A
C1207      H1214   1.084       .  S
C1208      C1209   1.421       .  A
C1209      C1210   1.389       .  A
C1209     Br1216   1.928       .  S
C1210      C1211   1.392       .  A
C1210      H1215   1.084       .  S
C1211      C1212   1.423       .  A
C1212     Br1213   1.920       .  S
C1217      C1218   1.386       .  A
C1217      C1222   1.380   1_565  A
C1217      H1224   1.086       .  S
C1218      C1219   1.411   1_565  A
C1219      C1220   1.421       .  A
C1219     Br1226   1.916       .  S
C1220      C1221   1.414       .  A
C1220      H1225   1.083       .  S
C1221      C1222   1.421       .  A
C1222     Br1223   1.898       .  S
C1227      C1228   1.417   1_545  A
C1227      C1232   1.410       .  A
C1227      H1234   1.083       .  S
C1229      C1230   1.388   1_565  A
C1229     Br1236   1.919       .  S
C1230      C1231   1.398       .  A
C1230      H1235   1.083       .  S
C1232     Br1233   1.915       .  S
C1237      C1238   1.408       .  A
C1237      C1242   1.406       .  A
C1237      H1244   1.079       .  S
C1238      C1239   1.408       .  A
C1239      C1240   1.405       .  A
C1239     Br1246   1.914       .  S
C1240      C1241   1.406       .  A
C1240      H1245   1.083       .  S
C1241      C1242   1.404       .  A
C1242     Br1243   1.917       .  S
C1247      C1248   1.398       .  A
C1247      C1252   1.404       .  A
C1247      H1254   1.082       .  S
C1248      C1249   1.414       .  A
C1249      C1250   1.406       .  A
C1249     Br1256   1.915       .  S
C1250      C1251   1.404       .  A
C1250      H1255   1.084       .  S
C1251      C1252   1.415       .  A
C1252     Br1253   1.900       .  S
C1257      C1258   1.414       .  A
C1257      C1262   1.408       .  A
C1257      H1264   1.084       .  S
C1258      C1259   1.405       .  A
C1259      C1260   1.407       .  A
C1259     Br1266   1.909   1_556  S
C1260      C1261   1.413       .  A
C1260      H1265   1.082       .  S
C1261      C1262   1.411       .  A
C1262     Br1263   1.919       .  S
C1267      C1268   1.395       .  A
C1267      C1272   1.396       .  A
C1267      H1274   1.084       .  S
C1268      C1269   1.406       .  A
C1269      C1270   1.404       .  A
C1269     Br1276   1.916       .  S
C1270      C1271   1.409       .  A
C1270      H1275   1.083       .  S
C1271      C1272   1.423       .  A
C1272     Br1273   1.927       .  S
C1277      C1278   1.404       .  A
C1277      C1282   1.393       .  A
C1277      H1284   1.082       .  S
C1278      C1279   1.401       .  A
C1279      C1280   1.388       .  A
C1279     Br1286   1.914       .  S
C1280      C1281   1.399       .  A
C1280      H1285   1.070       .  S
C1281      C1282   1.410       .  A
C1282     Br1283   1.921       .  S
C1287      C1288   1.411       .  A
C1287      C1292   1.414       .  A
C1287      H1294   1.081       .  S
C1288      C1289   1.398       .  A
C1289      C1290   1.393       .  A
C1289     Br1296   1.921       .  S
C1290      C1291   1.414       .  A
C1290      H1295   1.080       .  S
C1291      C1292   1.407       .  A
C1292     Br1293   1.908       .  S
C1297      C1298   1.401       .  A
C1297      C1302   1.387       .  A
C1297      H1304   1.084       .  S
C1298      C1299   1.415       .  A
C1299      C1300   1.404       .  A
C1299     Br1306   1.921       .  S
C1300      C1301   1.406       .  A
C1300      H1305   1.083       .  S
C1301      C1302   1.416       .  A
C1302     Br1303   1.922       .  S
C1307      C1308   1.398       .  A
C1307      C1312   1.384       .  A
C1307      H1314   1.078       .  S
C1308      C1309   1.408       .  A
C1309      C1310   1.416       .  A
C1309     Br1316   1.913       .  S
C1310      C1311   1.415       .  A
C1310      H1315   1.083       .  S
C1311      C1312   1.415       .  A
C1312     Br1313   1.925       .  S
C1317      C1318   1.413       .  A
C1317      C1322   1.401       .  A
C1317      H1324   1.083       .  S
C1318      C1319   1.406       .  A
C1319      C1320   1.391       .  A
C1319     Br1326   1.922       .  S
C1320      C1321   1.408       .  A
C1320      H1325   1.082       .  S
C1321      C1322   1.404       .  A
C1322     Br1323   1.918       .  S
C1327      C1328   1.393   1_455  A
C1327      C1332   1.381       .  A
C1327      H1334   1.085       .  S
C1328      C1329   1.407   1_655  A
C1329      C1330   1.398       .  A
C1329     Br1336   1.915   1_455  S
C1330      C1331   1.404       .  A
C1330      H1335   1.083       .  S
C1331      C1332   1.417       .  A
C1332     Br1333   1.928       .  S
C1337      C1338   1.398       .  A
C1337      C1342   1.391   1_655  A
C1337      H1344   1.084       .  S
C1338      C1339   1.411   1_655  A
C1339      C1340   1.405       .  A
C1339     Br1346   1.916       .  S
C1340      C1341   1.407       .  A
C1340      H1345   1.084       .  S
C1341      C1342   1.408       .  A
C1342     Br1343   1.897       .  S
C1347      C1348   1.408       .  A
C1347      C1352   1.414       .  A
C1347      H1354   1.083       .  S
C1348      C1349   1.402       .  A
C1349      C1350   1.400       .  A
C1349     Br1356   1.919       .  S
C1350      C1351   1.417       .  A
C1350      H1355   1.083       .  S
C1351      C1352   1.416       .  A
C1352     Br1353   1.911       .  S
C1357      C1358   1.394       .  A
C1357      C1362   1.382       .  A
C1357      H1364   1.069       .  S
C1358      C1359   1.415       .  A
C1359      C1360   1.418       .  A
C1359     Br1366   1.916       .  S
C1360      C1361   1.410       .  A
C1360      H1365   1.083       .  S
C1361      C1362   1.404       .  A
C1362     Br1363   1.914       .  S
C1367      C1372   1.417       .  A
C1367      H1374   1.082       .  S
C1368      C1369   1.408       .  A
C1369      C1370   1.398       .  A
C1369     Br1376   1.907       .  S
C1370      H1375   1.083       .  S
C1371      C1372   1.422       .  A
C1372     Br1373   1.920       .  S
C1377      C1378   1.407       .  A
C1377      C1382   1.403       .  A
C1377      H1384   1.084       .  S
C1378      C1379   1.405       .  A
C1379      C1380   1.392       .  A
C1379     Br1386   1.916       .  S
C1380      C1381   1.404       .  A
C1380      H1385   1.084       .  S
C1381      C1382   1.409       .  A
C1382     Br1383   1.919       .  S
C1387      C1388   1.407       .  A
C1387      C1392   1.407       .  A
C1387      H1394   1.082       .  S
C1388      C1389   1.419       .  A
C1389      C1390   1.388       .  A
C1389     Br1396   1.927       .  S
C1390      C1391   1.394       .  A
C1390      H1395   1.083       .  S
C1391      C1392   1.406       .  A
C1392     Br1393   1.915       .  S
C1397      C1402   1.410   1_655  A
C1397      H1404   1.084       .  S
C1398      C1399   1.409   1_655  A
C1399      C1400   1.405       .  A
C1399     Br1406   1.905       .  S
C1400      H1405   1.084       .  S
C1401      C1402   1.410       .  A
C1402     Br1403   1.907       .  S
C1407      C1408   1.404       .  A
C1407      C1412   1.409       .  A
C1407      H1414   1.083       .  S
C1408      C1409   1.412       .  A
C1409      C1410   1.422   1_455  A
C1409     Br1416   1.912       .  S
C1410      C1411   1.418       .  A
C1410      H1415   1.083       .  S
C1411      C1412   1.424   1_655  A
C1412     Br1413   1.917       .  S
C1417      C1418   1.402       .  A
C1417      C1422   1.400       .  A
C1417      H1424   1.083       .  S
C1418      C1419   1.424       .  A
C1419      C1420   1.392       .  A
C1419     Br1426   1.928       .  S
C1420      C1421   1.396       .  A
C1420      H1425   1.084       .  S
C1421      C1422   1.411       .  A
C1422     Br1423   1.911       .  S
C1427      C1428   1.403       .  A
C1427      C1432   1.405       .  A
C1427      H1434   1.083       .  S
C1428      C1429   1.417       .  A
C1429      C1430   1.391       .  A
C1429     Br1436   1.915       .  S
C1430      C1431   1.395       .  A
C1430      H1435   1.084       .  S
C1431      C1432   1.416       .  A
C1432     Br1433   1.917       .  S
C1437      C1438   1.415       .  A
C1437      C1442   1.412       .  A
C1437      H1444   1.083       .  S
C1438      C1439   1.416       .  A
C1439      C1440   1.372       .  A
C1439     Br1446   1.933       .  S
C1440      C1441   1.397       .  A
C1440      H1445   1.083       .  S
C1441      C1442   1.406       .  A
C1442     Br1443   1.914       .  S
C1447      C1448   1.398       .  A
C1447      C1452   1.399       .  A
C1447      H1454   1.084       .  S
C1448      C1449   1.410       .  A
C1449      C1450   1.405       .  A
C1449     Br1456   1.910   1_545  S
C1450      C1451   1.403       .  A
C1450      H1455   1.083       .  S
C1451      C1452   1.421       .  A
C1452     Br1453   1.924       .  S
C1457      C1458   1.395       .  A
C1457      C1462   1.397       .  A
C1457      H1464   1.084       .  S
C1458      C1459   1.423       .  A
C1459      C1460   1.396       .  A
C1459     Br1466   1.928       .  S
C1460      C1461   1.398       .  A
C1460      H1465   1.083       .  S
C1461      C1462   1.427       .  A
C1462     Br1463   1.926       .  S
C1467      C1468   1.415       .  A
C1467      C1472   1.409       .  A
C1467      H1474   1.083       .  S
C1468      C1469   1.408       .  A
C1469      C1470   1.409       .  A
C1469     Br1476   1.917       .  S
C1470      C1471   1.417       .  A
C1470      H1475   1.083       .  S
C1471      C1472   1.409       .  A
C1472     Br1473   1.910       .  S
C1477      C1478   1.420       .  A
C1477      C1482   1.405       .  A
C1477      H1484   1.080       .  S
C1478      C1479   1.405       .  A
C1480      H1485   1.082       .  S
C1481      C1482   1.400   1_565  A
C1482     Br1483   1.919   1_545  S
C1487      C1488   1.389       .  A
C1487      C1492   1.381       .  A
C1487      H1494   1.085   1_545  S
C1488      C1489   1.413       .  A
C1489      C1490   1.391       .  A
C1489     Br1496   1.917       .  S
C1490      C1491   1.397       .  A
C1490      H1495   1.082       .  S
C1491      C1492   1.404       .  A
C1492     Br1493   1.886       .  S
C1497      C1498   1.406       .  A
C1497      C1502   1.401       .  A
C1497      H1504   1.084       .  S
C1498      C1499   1.406       .  A
C1499      C1500   1.392       .  A
C1499     Br1506   1.909       .  S
C1500      C1501   1.397       .  A
C1500      H1505   1.073       .  S
C1501      C1502   1.410       .  A
C1502     Br1503   1.918       .  S
C1507      C1508   1.406       .  A
C1507      C1512   1.413       .  A
C1507      H1514   1.084       .  S
C1508      C1509   1.418       .  A
C1509      C1510   1.411       .  A
C1509     Br1516   1.920       .  S
C1510      C1511   1.407       .  A
C1510      H1515   1.084       .  S
C1511      C1512   1.417       .  A
C1512     Br1513   1.910       .  S
C1517      C1518   1.409       .  A
C1517      C1522   1.423       .  A
C1517      H1524   1.083       .  S
C1518      C1519   1.423       .  A
C1519      C1520   1.405       .  A
C1519     Br1526   1.918       .  S
C1520      C1521   1.402       .  A
C1520      H1525   1.084       .  S
C1521      C1522   1.424       .  A
C1522     Br1523   1.918   1_556  S
C1527      C1528   1.402       .  A
C1527      C1532   1.400       .  A
C1527      H1534   1.067       .  S
C1528      C1529   1.405       .  A
C1529      C1530   1.399       .  A
C1529     Br1536   1.912       .  S
C1530      C1531   1.408       .  A
C1530      H1535   1.084       .  S
C1531      C1532   1.408       .  A
C1532     Br1533   1.920       .  S
C1537      C1538   1.409       .  A
C1537      C1542   1.398       .  A
C1537      H1544   1.083       .  S
C1539      C1540   1.380       .  A
C1539     Br1546   1.928       .  S
C1540      C1541   1.399       .  A
C1540      H1545   1.080       .  S
C1542     Br1543   1.907       .  S
C1547      C1548   1.420       .  A
C1547      C1552   1.421       .  A
C1547      H1554   1.083       .  S
C1548      C1549   1.404       .  A
C1549      C1550   1.390       .  A
C1549     Br1556   1.905       .  S
C1550      C1551   1.410       .  A
C1550      H1555   1.079       .  S
C1551      C1552   1.412       .  A
C1552     Br1553   1.912       .  S
C1557      C1558   1.399       .  A
C1557      C1562   1.381       .  A
C1557      H1564   1.083   1_455  S
C1558      C1559   1.418       .  A
C1559      C1560   1.417       .  A
C1559     Br1566   1.913       .  S
C1560      C1561   1.409       .  A
C1560      H1565   1.083       .  S
C1561      C1562   1.417       .  A
C1562     Br1563   1.922       .  S
C1567      C1572   1.414   1_655  A
C1567      H1574   1.074       .  S
C1568      C1569   1.412       .  A
C1569      C1570   1.400   1_655  A
C1569     Br1576   1.924       .  S
C1570      C1571   1.411       .  A
C1570      H1575   1.081       .  S
C1572     Br1573   1.915       .  S
C1577      C1578   1.381       .  A
C1577      C1582   1.373       .  A
C1577      H1584   1.086       .  S
C1578      C1579   1.419       .  A
C1579      C1580   1.387       .  A
C1579     Br1586   1.923       .  S
C1580      C1581   1.390       .  A
C1580      H1585   1.084       .  S
C1581      C1582   1.422       .  A
C1582     Br1583   1.912       .  S
C1587      C1588   1.385       .  A
C1587      C1592   1.387       .  A
C1587      H1594   1.085       .  S
C1588      C1589   1.419       .  A
C1589      C1590   1.395       .  A
C1589     Br1596   1.916       .  S
C1590      C1591   1.391       .  A
C1590      H1595   1.083       .  S
C1591      C1592   1.426       .  A
C1592     Br1593   1.919       .  S
C1597      C1598   1.410       .  A
C1597      C1602   1.410       .  A
C1597      H1604   1.083       .  S
C1598      C1599   1.405       .  A
C1599      C1600   1.379       .  A
C1599     Br1606   1.925       .  S
C1600      C1601   1.409       .  A
C1600      H1605   1.083       .  S
C1601      C1602   1.412       .  A
C1602     Br1603   1.916       .  S
C1607      C1608   1.400       .  A
C1607      C1612   1.391       .  A
C1607      H1614   1.080       .  S
C1608      C1609   1.396       .  A
C1609      C1610   1.389       .  A
C1609     Br1616   1.919       .  S
C1610      C1611   1.410       .  A
C1610      H1615   1.083       .  S
C1611      C1612   1.409       .  A
C1612     Br1613   1.922       .  S
C1617      C1618   1.373       .  A
C1617      C1622   1.369   1_455  A
C1617      H1624   1.085       .  S
C1618      C1619   1.421       .  A
C1619      C1620   1.403   1_455  A
C1619     Br1626   1.921       .  S
C1620      C1621   1.401       .  A
C1620      H1625   1.083       .  S
C1621      C1622   1.425       .  A
C1622     Br1623   1.887       .  S
C1627      C1628   1.402       .  A
C1627      C1632   1.394   1_655  A
C1627      H1634   1.081       .  S
C1628      C1629   1.400       .  A
C1629      C1630   1.392   1_655  A
C1629     Br1636   1.915       .  S
C1630      C1631   1.411       .  A
C1630      H1635   1.083       .  S
C1631      C1632   1.412       .  A
C1632     Br1633   1.923       .  S
C1637      C1638   1.392       .  A
C1637      C1642   1.392       .  A
C1637      H1644   1.085       .  S
C1638      C1639   1.412       .  A
C1639      C1640   1.414       .  A
C1639     Br1646   1.916       .  S
C1640      C1641   1.412       .  A
C1640      H1645   1.083       .  S
C1641      C1642   1.427       .  A
C1642     Br1643   1.918       .  S
C1647      C1648   1.399       .  A
C1647      C1652   1.406       .  A
C1647      H1654   1.074       .  S
C1648      C1649   1.422       .  A
C1649      C1650   1.410       .  A
C1649     Br1656   1.922       .  S
C1650      C1651   1.404       .  A
C1650      H1655   1.084       .  S
C1651      C1652   1.424       .  A
C1652     Br1653   1.923       .  S
