geometry optimzed in LAMMPS
_audit_creation_date              2020-11-30 
_audit_creation_method            'lammps2cif' 
_symmetry_space_group_name_H-M    'P1' 
_symmetry_Int_Tables_number       1 
_symmetry_cell_setting            triclinic 
loop_ 
_symmetry_equiv_pos_as_xyz 
  x,y,z 
_cell_length_a                    31.47056023298133 
_cell_length_b                    37.25970605294229 
_cell_length_c                    86.33295456308078 
_cell_angle_alpha                 89.91613799581513 
_cell_angle_beta                  90.2926706119996 
_cell_angle_gamma                 90.50725981630336 
loop_ 
_atom_site_label 
_atom_site_type_symbol 
_atom_site_fract_x 
_atom_site_fract_y 
_atom_site_fract_z 
_atom_site_charge 
O1          O  0.35503394  0.02391712  0.29646317    -0.81970
O2          O  0.36152669  0.07688612  0.34999449    -0.81990
O3          O  0.37381683  0.11699122  0.31090491    -0.82000
O4          O  0.36691154  0.51922441  0.33269552    -0.81940
O5          O  0.34617063  0.13588613  0.33304163    -0.82070
O6          O  0.32921512  0.48245885  0.31889402    -0.81990
O7          O  0.33372789  0.02905274  0.36100782    -0.81970
O8          O  0.34398432  0.07465728  0.28496146    -0.82010
C9          C  0.35694944  0.04212765  0.28444699     1.07720
C10         C  0.36284218  0.05312685  0.36085641     1.07600
C11         C  0.37455801  0.13802899  0.32239974     1.07740
C12         C  0.36289537  0.48923490  0.32647280     1.07620
O13         O  0.24514162  0.51508827  0.31561652    -0.81970
O14         O  0.25378591  0.11134271  0.32938095    -0.82050
O15         O  0.25963941  0.09493754  0.29725432    -0.81980
O16         O  0.26160343  0.06268858  0.35040396    -0.81960
O17         O  0.28949252  0.11390645  0.35790773    -0.82020
O18         O  0.27040852  0.04405694  0.28674333    -0.81980
O19         O  0.27484644  0.49885157  0.33774933    -0.81940
O20         O  0.28999091  0.14608288  0.31457014    -0.82010
Co21       Co  0.29947913  0.01942923  0.30553836     1.51530
Co22       Co  0.30741740  0.09302130  0.33837777     1.51690
Co23       Co  0.31775756  0.10532138  0.30297119     1.51570
Co24       Co  0.31510854  0.04212233  0.34021366     1.51470
O25         O  0.31236937  0.06427543  0.31873352    -1.43910
C26         C  0.24444307  0.49671245  0.32780390     1.07650
C27         C  0.25769101  0.14097314  0.32290515     1.07740
C28         C  0.25634685  0.07582425  0.28572658     1.07670
C29         C  0.26053941  0.09011128  0.35941525     1.07650
O30         O  0.51946335  0.38395994  0.31876528    -0.81970
O31         O  0.12010975  0.29893206  0.28976312    -0.81990
O32         O  0.09957593  0.38343390  0.33372907    -0.82000
O33         O  0.04342240  0.29748322  0.28805420    -0.81940
O34         O  0.10879011  0.37437162  0.30805463    -0.82070
O35         O  0.52408032  0.35118278  0.29397801    -0.81990
O36         O  0.09566081  0.24352280  0.29598605    -0.81970
O37         O  0.01635082  0.37682418  0.34305033    -0.82010
C38         C  0.50431115  0.39358056  0.33123127     1.07720
C39         C  0.11613683  0.26400913  0.28683027     1.07600
C40         C  0.11191514  0.39414035  0.32024739     1.07740
C41         C  0.53731136  0.33013206  0.28410030     1.07620
O42         O  0.47736435  0.28791842  0.30660236    -0.81970
O43         O  0.15673437  0.34082670  0.33143668    -0.82050
O44         O  0.02740102  0.30357357  0.34991532    -0.81980
O45         O  0.09977314  0.25353209  0.32651825    -0.81960
O46         O  0.15484617  0.27898675  0.31688209    -0.82020
O47         O  0.47598126  0.32196163  0.33412748    -0.81980
O48         O  0.02445911  0.24910165  0.31462454    -0.81940
O49         O  0.11378742  0.31047620  0.34599100    -0.82010
Co50       Co  0.50305721  0.33537659  0.31356040     1.51530
Co51       Co  0.12739794  0.32480448  0.31172668     1.51690
Co52       Co  0.06519334  0.34149662  0.34208519     1.51570
Co53       Co  0.07238574  0.27792087  0.30864172     1.51470
O54         O  0.06246260  0.31963659  0.32041483    -1.43910
C55         C  0.48690425  0.25674291  0.31142627     1.07650
C56         C  0.14913912  0.32560198  0.34421070     1.07740
C57         C  0.48820013  0.30734474  0.34683347     1.07670
C58         C  0.13934543  0.25393573  0.32475568     1.07650
O59         O  0.51265434  0.42910099  0.21984304    -0.81970
O60         O  0.47352153  0.38051334  0.16030479    -0.81990
O61         O  0.45851842  0.35145926  0.20671150    -0.82000
O62         O  0.46170555  0.49973680  0.17945906    -0.81940
O63         O  0.50136855  0.38007515  0.19043488    -0.82070
O64         O  0.51080991  0.47479471  0.19347742    -0.81990
O65         O  0.48022893  0.43844946  0.16536382    -0.81970
O66         O  0.45951139  0.39866842  0.23035633    -0.82010
C67         C  0.99891729  0.40506176  0.22929221     1.07720
C68         C  0.99070607  0.41070445  0.15735212     1.07600
C69         C  0.49446913  0.35421999  0.19959961     1.07740
C70         C  0.99976994  0.99902059  0.18415519     1.07620
O71         O  0.42743427  0.00530930  0.20465572    -0.81970
O72         O  0.41763646  0.35412752  0.18253607    -0.82050
O73         O  0.38078217  0.43153516  0.22266516    -0.81980
O74         O  0.40368266  0.46915858  0.15980095    -0.81960
O75         O  0.39781913  0.41211286  0.16638366    -0.82020
O76         O  0.43720153  0.46322906  0.22983233    -0.81980
O77         O  0.38140897  0.97388746  0.19039270    -0.81940
O78         O  0.37307334  0.38086413  0.19793896    -0.82010
Co79       Co  0.47197693  0.46622765  0.21096580     1.51530
Co80       Co  0.45232716  0.39890228  0.17934577     1.51690
Co81       Co  0.41767180  0.39242770  0.21337507     1.51570
Co82       Co  0.42821772  0.45373660  0.17880875     1.51470
O83         O  0.44257231  0.42804688  0.19837610    -1.43910
C84         C  0.38988791  0.00107348  0.19862905     1.07650
C85         C  0.38096251  0.35606594  0.18845346     1.07740
C86         C  0.39796629  0.45651609  0.23086646     1.07670
C87         C  0.38639954  0.43871140  0.15774306     1.07650
O88         O  0.22913746  0.19077640  0.22864487    -0.81970
O89         O  0.21710086  0.13603959  0.15564789    -0.81990
O90         O  0.21366630  0.09346204  0.19755854    -0.82000
O91         O  0.21874796  0.24713342  0.17987540    -0.81940
O92         O  0.25331479  0.12963022  0.18437588    -0.82070
O93         O  0.25388277  0.23102038  0.20113036    -0.81990
O94         O  0.23489658  0.18929213  0.16481412    -0.81970
O95         O  0.23748890  0.13848722  0.21834491    -0.82010
C96         C  0.24176342  0.15844128  0.22964197     1.07720
C97         C  0.23965717  0.16440159  0.15466609     1.07600
C98         C  0.24974340  0.10069995  0.19185838     1.07740
C99         C  0.25156977  0.24904644  0.18867017     1.07620
O100        O  0.16752461  0.25779155  0.19974486    -0.81970
O101        O  0.16169763  0.10673393  0.17809212    -0.82050
O102        O  0.15256933  0.15560161  0.22836144    -0.81980
O103        O  0.16060892  0.22096543  0.15694432    -0.81960
O104        O  0.14393281  0.16656191  0.16506315    -0.82020
O105        O  0.14361276  0.20794438  0.21846199    -0.81980
O106        O  0.12725228  0.22322080  0.18600636    -0.81940
O107        O  0.12699461  0.12054063  0.19952222    -0.82010
Co108      Co  0.19968756  0.21858475  0.21089209     1.51530
Co109      Co  0.19937861  0.15058575  0.17588648     1.51690
Co110      Co  0.18150284  0.13048477  0.20986562     1.51570
Co111      Co  0.18060600  0.20361384  0.17664189     1.51470
O112        O  0.19103138  0.17556111  0.19624574    -1.43910
C113        C  0.13146864  0.25168231  0.19373312     1.07650
C114        C  0.12866390  0.10444997  0.18659372     1.07740
C115        C  0.14025150  0.18787081  0.22971716     1.07670
C116        C  0.13797332  0.19267892  0.15556529     1.07650
O117        O  0.47161776  0.20112752  0.11240032    -0.81970
O118        O  0.48323414  0.19147965  0.04741401    -0.81990
O119        O  0.46906310  0.09910767  0.08356744    -0.82000
O120        O  0.46508760  0.24423220  0.06389480    -0.81940
O121        O  0.50249041  0.13198043  0.06639588    -0.82070
O122        O  0.49508167  0.23579607  0.08643446    -0.81990
O123        O  0.42495095  0.21793326  0.03919191    -0.81970
O124        O  0.49268572  0.14799972  0.10492024    -0.82010
C125        C  0.49860543  0.17630758  0.11265145     1.07720
C126        C  0.46357903  0.21051648  0.03691096     1.07600
C127        C  0.50016990  0.10452515  0.07469680     1.07740
C128        C  0.49593159  0.24965067  0.07322880     1.07620
O129        O  0.40753706  0.25576376  0.08121720    -0.81970
O130        O  0.41136029  0.10771672  0.06584871    -0.82050
O131        O  0.40528152  0.15830278  0.11281518    -0.81980
O132        O  0.39265869  0.15823173  0.04809433    -0.81960
O133        O  0.45049925  0.13020925  0.04051108    -0.82020
O134        O  0.38364973  0.20998811  0.10379820    -0.81980
O135        O  0.37380371  0.22041599  0.06500993    -0.81940
O136        O  0.38128751  0.12002461  0.08784946    -0.82010
Co137      Co  0.43964918  0.22227224  0.09478423     1.51530
Co138      Co  0.44896189  0.15254713  0.06003951     1.51690
Co139      Co  0.43687269  0.13451977  0.09599565     1.51570
Co140      Co  0.42725803  0.19882837  0.05938242     1.51470
O141        O  0.43840302  0.17731707  0.08070871    -1.43910
C142        C  0.37625965  0.24906571  0.07248215     1.07650
C143        C  0.38024534  0.10410465  0.07510707     1.07740
C144        C  0.37765385  0.18249845  0.11205370     1.07670
C145        C  0.41181519  0.13766043  0.03814094     1.07650
O146        O  0.15453228  0.40180339  0.11308932    -0.81970
O147        O  0.14179308  0.41051208  0.04835487    -0.81990
O148        O  0.15588986  0.50362911  0.08392794    -0.82000
O149        O  0.16296953  0.35829223  0.06471584    -0.81940
O150        O  0.12241483  0.46995917  0.06697637    -0.82070
O151        O  0.13231960  0.36700469  0.08694052    -0.81990
O152        O  0.20017577  0.38516129  0.03981551    -0.81970
O153        O  0.13377896  0.45522538  0.10572931    -0.82010
C154        C  0.12801566  0.42698233  0.11355011     1.07720
C155        C  0.16116746  0.39189281  0.03775999     1.07600
C156        C  0.12457233  0.49761622  0.07512135     1.07740
C157        C  0.13192096  0.35286159  0.07380922     1.07620
O158        O  0.22089094  0.34842422  0.08234032    -0.81970
O159        O  0.21303163  0.49522459  0.06604284    -0.82050
O160        O  0.22192576  0.44629971  0.11358917    -0.81980
O161        O  0.23202574  0.44541404  0.04823056    -0.81960
O162        O  0.17310001  0.47201254  0.04080618    -0.82020
O163        O  0.24295802  0.39372971  0.10539749    -0.81980
O164        O  0.25290954  0.38367940  0.06559867    -0.81940
O165        O  0.24410995  0.48460450  0.08821640    -0.82010
Co166      Co  0.18745187  0.38119547  0.09568875     1.51530
Co167      Co  0.17608023  0.45003181  0.06055932     1.51690
Co168      Co  0.18918247  0.46907690  0.09655250     1.51570
Co169      Co  0.19890585  0.40447616  0.05998348     1.51470
O170        O  0.18834591  0.42598664  0.08140041    -1.43910
C171        C  0.25133119  0.35523311  0.07329876     1.07650
C172        C  0.24412705  0.50000910  0.07531262     1.07740
C173        C  0.24860470  0.42122682  0.11369703     1.07670
C174        C  0.21178095  0.46531815  0.03819412     1.07650
O175        O  0.07847524  0.25858939  0.97867364    -0.81970
O176        O  0.03810048  0.33815589  0.90695603    -0.81990
O177        O  0.99421949  0.34829653  0.95130086    -0.82000
O178        O  0.99938206  0.24962191  0.93801010    -0.81940
O179        O  0.03086840  0.37809866  0.93296392    -0.82070
O180        O  0.04545153  0.23065666  0.95412250    -0.81990
O181        O  0.99971774  0.29294011  0.91527046    -0.81970
O182        O  0.01815663  0.28440762  0.97079547    -0.82010
C183        C  0.03920537  0.26497829  0.98095202     1.07720
C184        C  0.00399379  0.31960033  0.90654862     1.07600
C185        C  0.49750791  0.37332596  0.94130517     1.07740
C186        C  0.00852444  0.22828250  0.94848157     1.07620
O187        O  0.12790541  0.26026285  0.95091113    -0.81970
O188        O  0.12342162  0.35876315  0.94009669    -0.82050
O189        O  0.04357999  0.34699139  0.97942501    -0.81980
O190        O  0.08671019  0.27539559  0.90636340    -0.81960
O191        O  0.12453592  0.31867291  0.91661597    -0.82020
O192        O  0.10381749  0.32196735  0.97119285    -0.81980
O193        O  0.09236347  0.23184705  0.93183047    -0.81940
O194        O  0.07642679  0.37766804  0.95555314    -0.82010
Co195      Co  0.07527014  0.27939065  0.95899229     1.51530
Co196      Co  0.07860173  0.34623198  0.92518624     1.51690
Co197      Co  0.04669534  0.32822000  0.95939319     1.51570
Co198      Co  0.04518721  0.26455964  0.92398708     1.51470
O199        O  0.06104170  0.30473157  0.93881342    -1.43910
C200        C  0.12515163  0.23585122  0.94065530     1.07650
C201        C  0.11342504  0.38059482  0.95015798     1.07740
C202        C  0.08290772  0.34032833  0.98164058     1.07670
C203        C  0.12039449  0.29453413  0.90667121     1.07650
O204        O  0.29869209  0.09698868  0.97898614    -0.81970
O205        O  0.34815342  0.01588540  0.90959111    -0.81990
O206        O  0.37256223  0.50554031  0.95153960    -0.82000
O207        O  0.37773735  0.10515439  0.93623594    -0.81940
O208        O  0.33418093  0.47542230  0.93427642    -0.82070
O209        O  0.33931700  0.12270839  0.95520683    -0.81990
O210        O  0.36168575  0.07408000  0.90937085    -0.81970
O211        O  0.35607380  0.06790964  0.97118505    -0.82010
C212        C  0.33695041  0.08790852  0.98146803     1.07720
C213        C  0.36902714  0.04267080  0.90478018     1.07600
C214        C  0.36806821  0.47966721  0.94221995     1.07740
C215        C  0.37460744  0.12348650  0.94818675     1.07620
O216        O  0.24888217  0.10211447  0.95200201    -0.81970
O217        O  0.24460250  0.50336050  0.93477300    -0.82050
O218        O  0.32241308  0.00797108  0.97837503    -0.81980
O219        O  0.27456761  0.09663911  0.91057031    -0.81960
O220        O  0.26057832  0.03859412  0.90877436    -0.82020
O221        O  0.26517545  0.03780196  0.97093656    -0.81980
O222        O  0.28825533  0.13399333  0.93579691    -0.81940
O223        O  0.28266679  0.48483766  0.95385834    -0.82010
Co224      Co  0.30015814  0.07766800  0.95902775     1.51530
Co225      Co  0.29734665  0.01167056  0.92319237     1.51690
Co226      Co  0.32126853  0.02924430  0.95867336     1.51570
Co227      Co  0.32512561  0.09889080  0.92427480     1.51470
O228        O  0.31093868  0.05446213  0.93785685    -1.43910
C229        C  0.25384349  0.12889120  0.94318803     1.07650
C230        C  0.24735422  0.48485061  0.94675534     1.07740
C231        C  0.28432537  0.01700363  0.98103943     1.07670
C232        C  0.25335810  0.07077037  0.90511616     1.07650
O233        O  0.11228040  0.07059506  0.41042068    -0.81970
O234        O  0.09940814  0.12249779  0.46807875    -0.81990
O235        O  0.12345951  0.12808208  0.43060411    -0.82000
O236        O  0.13264762  0.03092991  0.44408480    -0.81940
O237        O  0.08219111  0.16144337  0.44444153    -0.82070
O238        O  0.09478540  0.00983444  0.42466538    -0.81990
O239        O  0.11323924  0.06538008  0.47255092    -0.81970
O240        O  0.09046131  0.12244545  0.40141778    -0.82010
C241        C  0.11661029  0.09674757  0.40076908     1.07720
C242        C  0.11385619  0.09824503  0.47652212     1.07600
C243        C  0.11842482  0.15588038  0.43862636     1.07740
C244        C  0.12860204  0.00979146  0.43280409     1.07620
O245        O  0.00630741  0.03305150  0.43133123    -0.81970
O246        O  0.99742096  0.12674164  0.44325736    -0.82050
O247        O  0.01643172  0.08732937  0.41017107    -0.81980
O248        O  0.03003631  0.03931582  0.46807685    -0.81960
O249        O  0.01791539  0.09617670  0.47275101    -0.82020
O250        O  0.03809830  0.03483304  0.40224103    -0.81980
O251        O  0.04608420  0.99856799  0.44538522    -0.81940
O252        O  0.03382728  0.14877912  0.42375747    -0.82010
Co253      Co  0.05791521  0.05349465  0.42190511     1.51530
Co254      Co  0.04871829  0.12301963  0.45574730     1.51690
Co255      Co  0.07160589  0.10567518  0.42145023     1.51570
Co256      Co  0.08112174  0.03715519  0.45618459     1.51470
O257        O  0.06562438  0.08003178  0.44218710    -1.43910
C258        C  0.01048681  0.00467513  0.43898436     1.07650
C259        C  0.00058214  0.14831916  0.43208640     1.07740
C260        C  0.01131424  0.05992498  0.40122206     1.07670
C261        C  0.01828145  0.06352467  0.47693449     1.07650
O262        O  0.36373785  0.28808554  0.40684113    -0.81970
O263        O  0.30499701  0.37703790  0.47109682    -0.81990
O264        O  0.37701719  0.38184687  0.42501808    -0.82000
O265        O  0.37991563  0.28288971  0.44612628    -0.81940
O266        O  0.34294808  0.39791002  0.44570661    -0.82070
O267        O  0.34063249  0.24907492  0.43101428    -0.81990
O268        O  0.36249435  0.34798523  0.46382850    -0.81970
O269        O  0.35600829  0.34402723  0.39924309    -0.82010
C270        C  0.37282678  0.31353709  0.39787159     1.07720
C271        C  0.34349147  0.36906015  0.47375258     1.07600
C272        C  0.37531587  0.40017874  0.43707509     1.07740
C273        C  0.37540890  0.25535943  0.43779662     1.07620
O274        O  0.25384664  0.27469516  0.42710797    -0.81970
O275        O  0.25246115  0.37707835  0.44445805    -0.82050
O276        O  0.26951969  0.36162484  0.40384249    -0.81980
O277        O  0.32973096  0.28889647  0.47267643    -0.81960
O278        O  0.27123056  0.31593603  0.46474539    -0.82020
O279        O  0.27718725  0.30370365  0.40008750    -0.81980
O280        O  0.28709045  0.26284226  0.44863523    -0.81940
O281        O  0.28884914  0.40664220  0.42670581    -0.82010
Co282      Co  0.30887093  0.28266297  0.41751782     1.51530
Co283      Co  0.30514976  0.35422916  0.45156987     1.51690
Co284      Co  0.32294382  0.37026060  0.41518659     1.51570
Co285      Co  0.32735923  0.30725464  0.45242847     1.51470
O286        O  0.31552874  0.32843279  0.43090330    -1.43910
C287        C  0.25468866  0.25914062  0.43989551     1.07650
C288        C  0.25560772  0.40238002  0.43476008     1.07740
C289        C  0.26012274  0.33314797  0.39678861     1.07670
C290        C  0.29127526  0.29673965  0.47518084     1.07650
O291        O  0.39894269  0.44046531  0.54158749    -0.81970
O292        O  0.39169888  0.43198215  0.60199455    -0.81990
O293        O  0.42092324  0.38464934  0.55675214    -0.82000
O294        O  0.41855280  0.02965371  0.58092176    -0.81940
O295        O  0.38108645  0.40036032  0.57554885    -0.82070
O296        O  0.37982682  0.00066802  0.56324595    -0.81990
O297        O  0.41377297  0.48766856  0.60556245    -0.81970
O298        O  0.45770526  0.41478611  0.53302117    -0.82010
C299        C  0.41875096  0.42207643  0.53083905     1.07720
C300        C  0.38841885  0.46206190  0.60845440     1.07600
C301        C  0.38528407  0.38265870  0.56348872     1.07740
C302        C  0.38450261  0.02579028  0.57298150     1.07620
O303        O  0.46763345  0.02608316  0.56033632    -0.81970
O304        O  0.47236559  0.37571185  0.57697365    -0.82050
O305        O  0.48737921  0.47538689  0.54228565    -0.81980
O306        O  0.50180656  0.46744864  0.60207210    -0.81960
O307        O  0.48028928  0.41122982  0.60385325    -0.82020
O308        O  0.42735550  0.50313746  0.53583426    -0.81980
O309        O  0.51015370  0.00483441  0.57724908    -0.81940
O310        O  0.50886557  0.40855628  0.55996000    -0.82010
Co311      Co  0.43157346  0.97981730  0.55492907     1.51530
Co312      Co  0.43195970  0.40811947  0.58837839     1.51690
Co313      Co  0.45624989  0.43199125  0.55344370     1.51570
Co314      Co  0.46038219  0.99434129  0.59007492     1.51470
O315        O  0.44530128  0.45292035  0.57508380    -1.43910
C316        C  0.50450177  0.02570386  0.56626975     1.07650
C317        C  0.00552828  0.38156801  0.56886171     1.07740
C318        C  0.46650548  0.49777166  0.53327771     1.07670
C319        C  0.00564180  0.43641840  0.60757576     1.07650
O320        O  0.23849027  0.21921399  0.54113426    -0.81970
O321        O  0.25944933  0.21809020  0.59637943    -0.81990
O322        O  0.21325949  0.27592303  0.55640515    -0.82000
O323        O  0.22439642  0.13136468  0.58194507    -0.81940
O324        O  0.25961204  0.25806457  0.57260910    -0.82070
O325        O  0.26188216  0.15815413  0.56299182    -0.81990
O326        O  0.21974701  0.17579940  0.60651002    -0.81970
O327        O  0.17789731  0.24418484  0.53294027    -0.82010
C328        C  0.21712006  0.23773292  0.53068893     1.07720
C329        C  0.25429391  0.19377861  0.60623497     1.07600
C330        C  0.25041938  0.27868195  0.56189665     1.07740
C331        C  0.25788149  0.13439900  0.57352279     1.07620
O332        O  0.17833303  0.12941099  0.55977565    -0.81970
O333        O  0.16748294  0.27868821  0.57900287    -0.82050
O334        O  0.15305029  0.18205049  0.54215098    -0.81980
O335        O  0.13364099  0.19655321  0.59648045    -0.81960
O336        O  0.17424200  0.23905383  0.60580361    -0.82020
O337        O  0.21330240  0.15478174  0.53509753    -0.81980
O338        O  0.13203110  0.15191921  0.57455360    -0.81940
O339        O  0.13026930  0.24808396  0.56093311    -0.82010
Co340      Co  0.20986180  0.17753208  0.55420439     1.51530
Co341      Co  0.21439389  0.24637852  0.58739408     1.51690
Co342      Co  0.18209933  0.22666938  0.55309108     1.51570
Co343      Co  0.17801996  0.16582100  0.58879593     1.51470
O344        O  0.19641648  0.20454256  0.57389913    -1.43910
C345        C  0.14081107  0.12880533  0.56486815     1.07650
C346        C  0.13415109  0.27395279  0.57050123     1.07740
C347        C  0.17378301  0.16029106  0.53287998     1.07670
C348        C  0.14043065  0.22017891  0.60646214     1.07650
O349        O  0.39844812  0.21976156  0.65644768    -0.81970
O350        O  0.40044219  0.21354983  0.71796660    -0.81990
O351        O  0.42110857  0.12156752  0.68118344    -0.82000
O352        O  0.42023043  0.26840362  0.70235285    -0.81940
O353        O  0.38338948  0.15177109  0.69832280    -0.82070
O354        O  0.38247545  0.25167943  0.68282019    -0.81990
O355        O  0.45794319  0.24195513  0.72673195    -0.81970
O356        O  0.41073622  0.16169003  0.65618473    -0.82010
C357        C  0.39054806  0.18873679  0.65146104     1.07720
C358        C  0.41913925  0.23327728  0.72861110     1.07600
C359        C  0.38739674  0.12616500  0.68894643     1.07740
C360        C  0.38537383  0.26961500  0.69494325     1.07620
O361        O  0.47251086  0.27832619  0.68320038    -0.81970
O362        O  0.47213879  0.12929503  0.70144502    -0.82050
O363        O  0.49898772  0.18324758  0.65716353    -0.81980
O364        O  0.49074849  0.18259493  0.71854806    -0.81960
O365        O  0.43223241  0.15342154  0.72558411    -0.82020
O366        O  0.48646888  0.24124006  0.65754832    -0.81980
O367        O  0.50971508  0.24665549  0.70010558    -0.81940
O368        O  0.51186252  0.14795156  0.68294037    -0.82010
Co369      Co  0.43539457  0.24423281  0.67128143     1.51530
Co370      Co  0.43505185  0.17462114  0.70589748     1.51690
Co371      Co  0.46015605  0.15695380  0.67070223     1.51570
Co372      Co  0.45735204  0.22285866  0.70657203     1.51470
O373        O  0.44716715  0.19984075  0.68517830    -1.43910
C374        C  0.00630572  0.27283394  0.69089712     1.07650
C375        C  0.00767270  0.12862964  0.69460051     1.07740
C376        C  0.00756169  0.21473682  0.65283354     1.07670
C377        C  0.97070516  0.16176965  0.72842385     1.07650
O378        O  0.08482371  0.09428496  0.85997973    -0.81970
O379        O  0.04798712  0.02348735  0.78612129    -0.81990
O380        O  0.12420856  0.51242852  0.82638695    -0.82000
O381        O  0.12696713  0.11113921  0.81646482    -0.81940
O382        O  0.07842977  0.49275087  0.81035311    -0.82070
O383        O  0.08963851  0.13877925  0.83497217    -0.81990
O384        O  0.10659652  0.05039383  0.79545854    -0.81970
O385        O  0.12365286  0.05231537  0.84978798    -0.82010
C386        C  0.11917128  0.07650498  0.85961544     1.07720
C387        C  0.08733931  0.03150494  0.78460748     1.07600
C388        C  0.11497416  0.49024864  0.81627389     1.07740
C389        C  0.12322091  0.13515282  0.82675527     1.07620
O390        O  0.99780163  0.11790957  0.82777599    -0.81970
O391        O  0.99619750  0.52070633  0.81359058    -0.82050
O392        O  0.03732854  0.03059985  0.85898953    -0.81980
O393        O  0.08057859  0.11345102  0.78802490    -0.81960
O394        O  0.02033776  0.08520225  0.79463412    -0.82020
O395        O  0.99819146  0.07420879  0.85017881    -0.81980
O396        O  0.04381097  0.13930926  0.81223197    -0.81940
O397        O  0.03152495  0.49155837  0.83251194    -0.82010
Co398      Co  0.04331528  0.10423372  0.84212617     1.51530
Co399      Co  0.04884107  0.04183630  0.80628527     1.51690
Co400      Co  0.07848553  0.02387542  0.84089304     1.51570
Co401      Co  0.07560820  0.09157581  0.80744047     1.51470
O402        O  0.06074863  0.06508989  0.82722580    -1.43910
C403        C  0.00673749  0.14043975  0.81774039     1.07650
C404        C  0.99877118  0.49610700  0.82378941     1.07740
C405        C  0.00293348  0.04831922  0.85922804     1.07670
C406        C  0.04178801  0.10588135  0.78502680     1.07650
O407        O  0.13423179  0.45782496  0.66398273    -0.81970
O408        O  0.15147823  0.46502116  0.71842127    -0.81990
O409        O  0.17019723  0.37453027  0.67983998    -0.82000
O410        O  0.17755326  0.02207938  0.70249937    -0.81940
O411        O  0.13225576  0.40255733  0.69814123    -0.82070
O412        O  0.13234737  0.00077014  0.68661065    -0.81990
O413        O  0.20942983  0.49396691  0.72714540    -0.81970
O414        O  0.17529114  0.41695923  0.65417664    -0.82010
C415        C  0.14071750  0.43451646  0.65388317     1.07720
C416        C  0.17047515  0.48501108  0.72896038     1.07600
C417        C  0.13652186  0.37819542  0.68801612     1.07740
C418        C  0.14076395  0.02333609  0.69668090     1.07620
O419        O  0.22499517  0.02242928  0.68020758    -0.81970
O420        O  0.21522915  0.37567951  0.70265028    -0.82050
O421        O  0.26086473  0.43980844  0.66459265    -0.81980
O422        O  0.23851482  0.43217510  0.71936033    -0.81960
O423        O  0.17919897  0.40279115  0.72654440    -0.82020
O424        O  0.21999366  0.48050251  0.65439194    -0.81980
O425        O  0.26033912  0.99539176  0.69963303    -0.81940
O426        O  0.26166178  0.39691109  0.68730992    -0.82010
Co427      Co  0.17859168  0.48845664  0.67238029     1.51530
Co428      Co  0.18313443  0.42348099  0.70689319     1.51690
Co429      Co  0.21626404  0.40909974  0.67254564     1.51570
Co430      Co  0.20851581  0.47402619  0.70727000     1.51470
O431        O  0.19711143  0.44885701  0.68676875    -1.43910
C432        C  0.25784741  0.01908056  0.68904288     1.07650
C433        C  0.25238064  0.37434630  0.69727954     1.07740
C434        C  0.25449271  0.46290693  0.65437042     1.07670
C435        C  0.21795949  0.41131629  0.72911359     1.07650
O436        O  0.27037114  0.27321197  0.85415611    -0.81970
O437        O  0.31989688  0.36171791  0.78721212    -0.81990
O438        O  0.24532938  0.36640962  0.83175390    -0.82000
O439        O  0.24911692  0.26632029  0.81337680    -0.81940
O440        O  0.28128809  0.38400421  0.81193745    -0.82070
O441        O  0.28868210  0.23505922  0.82947245    -0.81990
O442        O  0.26366124  0.33027007  0.79508902    -0.81970
O443        O  0.26536078  0.33155775  0.85785327    -0.82010
C444        C  0.25376060  0.29972983  0.86073254     1.07720
C445        C  0.28153523  0.35199863  0.78508733     1.07600
C446        C  0.24708363  0.38462516  0.81962289     1.07740
C447        C  0.25383650  0.24010009  0.82243786     1.07620
O448        O  0.37710748  0.26389042  0.83066437    -0.81970
O449        O  0.37170757  0.36457465  0.81375468    -0.82050
O450        O  0.35292827  0.35400651  0.85493070    -0.81980
O451        O  0.29905963  0.27233579  0.78639512    -0.81960
O452        O  0.35574418  0.30266205  0.79453560    -0.82020
O453        O  0.35758349  0.29535298  0.85756658    -0.81980
O454        O  0.34037401  0.24785114  0.81059300    -0.81940
O455        O  0.33450855  0.39481451  0.83086812    -0.82010
Co456      Co  0.32310685  0.27057142  0.84168437     1.51530
Co457      Co  0.32011233  0.34027680  0.80692897     1.51690
Co458      Co  0.29980666  0.35815178  0.84249453     1.51570
Co459      Co  0.30030675  0.29159940  0.80656323     1.51470
O460        O  0.31097588  0.31500356  0.82780756    -1.43910
C461        C  0.37468444  0.24637623  0.81836826     1.07650
C462        C  0.36793560  0.39055015  0.82294169     1.07740
C463        C  0.36929065  0.32673298  0.86109393     1.07670
C464        C  0.33720085  0.28236600  0.78408278     1.07650
C465        C  0.23590877  0.35882105  0.74524394    -0.15180
C466        C  0.23786882  0.39607854  0.74285374     0.06970
C467        C  0.25012250  0.41877262  0.75499633    -0.15180
C468        C  0.26112157  0.40424526  0.76934672    -0.15180
C469        C  0.25952455  0.36696416  0.77171937     0.06970
C470        C  0.24700336  0.34427348  0.75959878    -0.15180
H471        H  0.22548868  0.34110019  0.73601118     0.10950
H472        H  0.25013099  0.44764059  0.75348394     0.10950
H473        H  0.27186151  0.42198616  0.77852398     0.10950
H474        H  0.24737027  0.31540129  0.76106771     0.10950
C475        C  0.15087541  0.03030998  0.76737870    -0.15180
C476        C  0.10958974  0.01860670  0.77074370     0.06970
C477        C  0.08793197  0.49636144  0.76006157    -0.15180
C478        C  0.10714030  0.48608213  0.74625562    -0.15180
C479        C  0.14837762  0.49784351  0.74286804     0.06970
C480        C  0.17008866  0.02003552  0.75356438    -0.15180
H481        H  0.16808090  0.04770598  0.77530351     0.10950
H482        H  0.05586512  0.48700147  0.76230731     0.10950
H483        H  0.08991816  0.46868552  0.73833762     0.10950
H484        H  0.20218088  0.02934761  0.75132355     0.10950
C485        C  0.42252761  0.48002431  0.82408339    -0.15180
C486        C  0.46507283  0.46948844  0.82444178     0.06970
C487        C  0.47564709  0.43305486  0.82458189    -0.14700
C488        C  0.44374356  0.40714172  0.82394927    -0.15180
C489        C  0.40118320  0.41762072  0.82364681     0.06970
C490        C  0.39054365  0.45405448  0.82394774    -0.15180
H491        H  0.41421807  0.00816922  0.82394844     0.10950
H492        H  0.00857593  0.42473723  0.82470151     0.10950
H493        H  0.45215953  0.37901852  0.82381151     0.10950
H494        H  0.35761306  0.46232373  0.82367212     0.10950
C495        C  0.19904181  0.15144327  0.82667077    -0.15180
C496        C  0.15662817  0.16203618  0.82772193     0.06970
C497        C  0.14610708  0.19849944  0.82743263    -0.15180
C498        C  0.17789442  0.22426232  0.82544828    -0.15180
C499        C  0.22025441  0.21355338  0.82417290     0.06970
C500        C  0.23084312  0.17718228  0.82512822    -0.15180
H501        H  0.20734753  0.12329203  0.82674758     0.10950
H502        H  0.11324174  0.20685609  0.82798008     0.10950
H503        H  0.16956675  0.25238394  0.82495474     0.10950
H504        H  0.26358931  0.16867437  0.82422954     0.10950
C505        C  0.16927184  0.40046243  0.81952977    -0.15180
C506        C  0.21152284  0.40943478  0.81565844     0.06970
C507        C  0.21978308  0.44380072  0.80956760    -0.15180
C508        C  0.18727181  0.46941082  0.80856136    -0.15180
C509        C  0.14542535  0.46088689  0.81306514     0.06970
C510        C  0.13652011  0.42576525  0.81807682    -0.15180
H511        H  0.16187161  0.37423693  0.82426388     0.10950
H512        H  0.25195635  0.45169365  0.80660913     0.10950
H513        H  0.19522543  0.99651914  0.80499673     0.10950
H514        H  0.10488415  0.41871089  0.82200843     0.10950
C515        C  0.43146585  0.15818556  0.81264872    -0.15180
C516        C  0.47459905  0.16833920  0.81390854     0.06970
C517        C  0.48468886  0.20512584  0.81456848    -0.15180
C518        C  0.45216065  0.23089876  0.81518884    -0.15180
C519        C  0.40899622  0.22047553  0.81461601     0.06970
C520        C  0.39913589  0.18393407  0.81274604    -0.15180
H521        H  0.42265919  0.13002931  0.81233582     0.10950
H522        H  0.01748122  0.21375396  0.81584185     0.10950
H523        H  0.46064667  0.25888087  0.81675247     0.10950
H524        H  0.36625708  0.17503055  0.81251065     0.10950
C525        C  0.42001009  0.26771383  0.75333054    -0.15180
C526        C  0.39721131  0.24682083  0.74242515     0.06970
C527        C  0.35486619  0.23771407  0.74538843    -0.15180
C528        C  0.33576171  0.24908959  0.75905713    -0.15180
C529        C  0.35868043  0.26972852  0.77001801     0.06970
C530        C  0.40091613  0.27907417  0.76699621    -0.15180
H531        H  0.45293471  0.27507939  0.75139640     0.10950
H532        H  0.33669945  0.22159334  0.73724799     0.10950
H533        H  0.30284546  0.24172145  0.76100763     0.10950
H534        H  0.41913174  0.29510285  0.77515698     0.10950
C535        C  0.02926844  0.33571457  0.68871386    -0.15180
C536        C  0.03999536  0.29939354  0.68986714     0.06970
C537        C  0.08252513  0.28884667  0.68936844    -0.15180
C538        C  0.11431175  0.31473832  0.68778244    -0.15180
C539        C  0.10349991  0.35111003  0.68710605     0.06970
C540        C  0.06099317  0.36156046  0.68755388    -0.15180
H541        H  0.49638591  0.34409418  0.68906319     0.10950
H542        H  0.09096099  0.26077372  0.69007318     0.10950
H543        H  0.14728954  0.30657510  0.68772481     0.10950
H544        H  0.05251450  0.38966636  0.68719592     0.10950
C545        C  0.36107539  0.06702916  0.69671797    -0.15180
C546        C  0.35492564  0.09870971  0.68840670     0.06970
C547        C  0.31812122  0.10379055  0.67960217    -0.15180
C548        C  0.28695372  0.07707984  0.67924987    -0.15180
C549        C  0.29231560  0.04551812  0.68794743     0.06970
C550        C  0.32982584  0.04054896  0.69655736    -0.15180
H551        H  0.38975652  0.06310282  0.70350134     0.10950
H552        H  0.31346159  0.12842178  0.67317219     0.10950
H553        H  0.25825525  0.08158893  0.67257224     0.10950
H554        H  0.33479896  0.01646478  0.70333664     0.10950
C555        C  0.35824803  0.32920962  0.70452234    -0.15180
C556        C  0.34996901  0.29427414  0.69911403     0.06970
C557        C  0.30753211  0.28467249  0.69562014    -0.15180
C558        C  0.27461158  0.30986735  0.69667743    -0.15180
C559        C  0.28349201  0.34554226  0.70086408     0.06970
C560        C  0.32551540  0.35471617  0.70510465    -0.15180
H561        H  0.39053654  0.33758340  0.70715716     0.10950
H562        H  0.30011319  0.25799816  0.69138383     0.10950
H563        H  0.24282680  0.30219892  0.69301484     0.10950
H564        H  0.33341005  0.38219201  0.70810342     0.10950
C565        C  0.08536007  0.11335435  0.69676084    -0.15180
C566        C  0.04243847  0.10313330  0.69874620     0.06970
C567        C  0.03341007  0.06714564  0.70244482    -0.15180
C568        C  0.06609194  0.04155548  0.70286847    -0.15180
C569        C  0.10876548  0.05150847  0.70016858     0.06970
C570        C  0.11818142  0.08795445  0.69768349    -0.15180
H571        H  0.09335089  0.14084415  0.69381974     0.10950
H572        H  0.50077157  0.05828679  0.70385415     0.10950
H573        H  0.05780028  0.01356954  0.70458610     0.10950
H574        H  0.15051504  0.09635938  0.69525023     0.10950
C575        C  0.03055708  0.15797053  0.74759003    -0.15180
C576        C  0.99033984  0.14679262  0.74252339     0.06970
C577        C  0.46658658  0.12270823  0.75176921    -0.15180
C578        C  0.48260633  0.11012946  0.76581773    -0.15180
C579        C  0.02278389  0.12125984  0.77090154     0.06970
C580        C  0.04665875  0.14529165  0.76166138    -0.15180
H581        H  0.04924982  0.17672727  0.74080558     0.10950
H582        H  0.43523991  0.11363189  0.74820940     0.10950
H583        H  0.46382398  0.09137234  0.77257119     0.10950
H584        H  0.07803352  0.15421627  0.76525707     0.10950
C585        C  0.09746848  0.25283413  0.62729347    -0.15180
C586        C  0.10930336  0.22148540  0.61934985     0.06970
C587        C  0.08842493  0.18911354  0.62296946    -0.15180
C588        C  0.05605259  0.18779052  0.63373285    -0.15180
C589        C  0.04293638  0.21878558  0.64151280     0.06970
C590        C  0.06415405  0.25152552  0.63828809    -0.15180
H591        H  0.11292350  0.27819409  0.62470959     0.10950
H592        H  0.09685656  0.16429292  0.61727411     0.10950
H593        H  0.04082436  0.16204069  0.63576446     0.10950
H594        H  0.05502868  0.27585158  0.64419625     0.10950
C595        C  0.31948539  0.21717195  0.61887297    -0.15180
C596        C  0.28922327  0.18928563  0.61773729     0.06970
C597        C  0.29399907  0.15892564  0.62733002    -0.15180
C598        C  0.32821710  0.15715643  0.63799344    -0.15180
C599        C  0.35727644  0.18603408  0.63929695     0.06970
C600        C  0.35266413  0.21557501  0.62941201    -0.15180
H601        H  0.31729652  0.24103935  0.61175013     0.10950
H602        H  0.27148218  0.13685048  0.62660809     0.10950
H603        H  0.33119091  0.13397110  0.64546103     0.10950
H604        H  0.37465149  0.23809874  0.62997132     0.10950
C605        C  0.33039064  0.49658123  0.62259098    -0.15180
C606        C  0.35454678  0.46530630  0.62026242     0.06970
C607        C  0.34470682  0.43457235  0.62890637    -0.15180
C608        C  0.31193758  0.43460202  0.63954507    -0.15180
C609        C  0.28733061  0.46537785  0.64204576     0.06970
C610        C  0.29658440  0.49652896  0.63337550    -0.15180
H611        H  0.33708390  0.52057576  0.61591716     0.10950
H612        H  0.36260108  0.41009748  0.62745499     0.10950
H613        H  0.30579490  0.40995532  0.64585108     0.10950
H614        H  0.27835483  0.52068477  0.63509821     0.10950
C615        C  0.06419331  0.40091458  0.62175072    -0.15180
C616        C  0.03992125  0.43222263  0.61943606     0.06970
C617        C  0.05004093  0.46272099  0.62824678    -0.15180
C618        C  0.08310256  0.46260894  0.63886190    -0.15180
C619        C  0.10778682  0.43188005  0.64138910     0.06970
C620        C  0.09825316  0.40081404  0.63264172    -0.15180
H621        H  0.05739715  0.37703745  0.61502236     0.10950
H622        H  0.03222949  0.98730635  0.62692547     0.10950
H623        H  0.08936357  0.98725011  0.64515725     0.10950
H624        H  0.11647011  0.37661783  0.63436951     0.10950
C625        C  0.08153877  0.36428537  0.57060467    -0.15180
C626        C  0.03871284  0.35438198  0.56904884     0.06970
C627        C  0.02723196  0.31794483  0.56832954    -0.15180
C628        C  0.05834434  0.29159639  0.56886901    -0.15180
C629        C  0.10115591  0.30139309  0.57065320     0.06970
C630        C  0.11259808  0.33785645  0.57163458    -0.15180
H631        H  0.09076197  0.39230562  0.57131386     0.10950
H632        H  0.49418030  0.30993415  0.56713883     0.10950
H633        H  0.04902450  0.26361763  0.56802203     0.10950
H634        H  0.14564379  0.34588164  0.57281039     0.10950
C635        C  0.30907445  0.04393200  0.57500617    -0.15180
C636        C  0.35211269  0.05341253  0.57404673     0.06970
C637        C  0.36431116  0.08971299  0.57375728    -0.15180
C638        C  0.33356938  0.11638520  0.57385678    -0.15180
C639        C  0.29049855  0.10693772  0.57479297     0.06970
C640        C  0.27839434  0.07064298  0.57563253    -0.15180
H641        H  0.29933291  0.01599101  0.57528046     0.10950
H642        H  0.39754397  0.09734623  0.57293316     0.10950
H643        H  0.34328403  0.14428852  0.57311384     0.10950
H644        H  0.24512500  0.06297721  0.57614663     0.10950
C645        C  0.03195803  0.08691729  0.55841218    -0.15180
C646        C  0.03973920  0.05074759  0.56184914     0.06970
C647        C  0.08234809  0.03973038  0.56350591    -0.15180
C648        C  0.11613932  0.06464134  0.56280495    -0.15180
C649        C  0.10798891  0.10128878  0.56082238     0.06970
C650        C  0.06566919  0.11198577  0.55815468    -0.15180
H651        H  0.99962727  0.09630088  0.55718531     0.10950
H652        H  0.08936698  0.01199387  0.56616551     0.10950
H653        H  0.14821027  0.05566818  0.56512348     0.10950
H654        H  0.05845498  0.14016223  0.55672751     0.10950
C655        C  0.30737496  0.36826797  0.56109342    -0.15180
C656        C  0.34989087  0.35794913  0.55870233     0.06970
C657        C  0.35767258  0.32224836  0.55445543    -0.15180
C658        C  0.32422628  0.29684648  0.55408150    -0.15180
C659        C  0.28209529  0.30678035  0.55743251     0.06970
C660        C  0.27383751  0.34309333  0.56029235    -0.15180
H661        H  0.30035227  0.39554499  0.56447375     0.10950
H662        H  0.38997564  0.31330962  0.55274699     0.10950
H663        H  0.33163719  0.26890078  0.55212085     0.10950
H664        H  0.24201634  0.35143480  0.56327815     0.10950
C665        C  0.22812099  0.28527181  0.49211342    -0.15180
C666        C  0.27158528  0.28221853  0.48934963     0.06970
C667        C  0.29748019  0.26497007  0.50047075    -0.15180
C668        C  0.28020264  0.25066676  0.51400612    -0.15180
C669        C  0.23668661  0.25339714  0.51671507     0.06970
C670        C  0.21081794  0.27094590  0.50566373    -0.15180
H671        H  0.20756990  0.29840428  0.48379785     0.10950
H672        H  0.33139484  0.26247493  0.49874098     0.10950
H673        H  0.30079629  0.23747973  0.52229084     0.10950
H674        H  0.17690396  0.27340703  0.50739993     0.10950
C675        C  0.40402943  0.37227612  0.49280416    -0.15180
C676        C  0.36408816  0.38393589  0.48788291     0.06970
C677        C  0.34146779  0.40786811  0.49743712    -0.15180
C678        C  0.35833013  0.41974117  0.51160302    -0.15180
C679        C  0.39826226  0.40801957  0.51652641     0.06970
C680        C  0.42089984  0.38417641  0.50693844    -0.15180
H681        H  0.42191955  0.35357664  0.48586868     0.10950
H682        H  0.31030820  0.41726052  0.49403723     0.10950
H683        H  0.34041146  0.43833170  0.51858210     0.10950
H684        H  0.45197990  0.37461091  0.51034530     0.10950
C685        C  0.03144498  0.02204937  0.49868814    -0.15180
C686        C  0.00857653  0.05161750  0.49277290     0.06970
C687        C  0.47723693  0.06725061  0.50182828    -0.15180
C688        C  0.46595716  0.05104343  0.51585417    -0.15180
C689        C  0.98619735  0.01935366  0.52097584     0.06970
C690        C  0.02038636  0.00605185  0.51268121    -0.15180
H691        H  0.05703770  0.01026809  0.49211744     0.10950
H692        H  0.45998806  0.09041158  0.49769452     0.10950
H693        H  0.43977377  0.06220143  0.52230683     0.10950
H694        H  0.03650243  0.48195613  0.51641706     0.10950
C695        C  0.42619339  0.16615481  0.43348192    -0.15180
C696        C  0.46853417  0.17586868  0.43081958     0.06970
C697        C  0.48069519  0.21218780  0.43052563    -0.15180
C698        C  0.45063858  0.23865176  0.43342182    -0.15180
C699        C  0.40843243  0.22866798  0.43634208     0.06970
C700        C  0.39625539  0.19241172  0.43608613    -0.15180
H701        H  0.41665215  0.13817300  0.43404231     0.10950
H702        H  0.01366006  0.21988060  0.42889006     0.10950
H703        H  0.46007759  0.26666492  0.43322881     0.10950
H704        H  0.36355407  0.18438999  0.43813813     0.10950
C705        C  0.14873401  0.44599980  0.43096712    -0.15180
C706        C  0.16069859  0.48234915  0.43085331     0.06970
C707        C  0.20367443  0.49211428  0.43174543    -0.15180
C708        C  0.23453221  0.46576867  0.43282684    -0.15180
C709        C  0.22261449  0.42946699  0.43356756     0.06970
C710        C  0.17964270  0.41957120  0.43254017    -0.15180
H711        H  0.11547012  0.43822377  0.43066669     0.10950
H712        H  0.21318296  0.02012434  0.43196016     0.10950
H713        H  0.26769187  0.47374722  0.43356215     0.10950
H714        H  0.17015522  0.39157985  0.43291824     0.10950
C715        C  0.40711975  0.45776112  0.42914482    -0.15180
C716        C  0.40735973  0.42846665  0.43929298     0.06970
C717        C  0.44079369  0.42471268  0.44996586    -0.15180
C718        C  0.47451413  0.44965489  0.45008340    -0.15180
C719        C  0.47473939  0.47867095  0.43962433     0.06970
C720        C  0.44019973  0.48280155  0.42940061    -0.15180
H721        H  0.38168161  0.46078079  0.42074125     0.10950
H722        H  0.44152358  0.40193430  0.45776414     0.10950
H723        H  0.00054889  0.44604268  0.45817406     0.10950
H724        H  0.43923733  0.00491644  0.42126655     0.10950
C725        C  0.19618820  0.17102232  0.43913666    -0.15180
C726        C  0.15380589  0.18195743  0.44081791     0.06970
C727        C  0.14564989  0.21812134  0.44426142    -0.15180
C728        C  0.17905057  0.24321157  0.44505849    -0.15180
C729        C  0.22120683  0.23232078  0.44297770     0.06970
C730        C  0.22959788  0.19595176  0.44033914    -0.15180
H731        H  0.20343186  0.14330931  0.43658327     0.10950
H732        H  0.11330893  0.22730429  0.44560754     0.10950
H733        H  0.17190844  0.27132201  0.44670490     0.10950
H734        H  0.26183677  0.18721986  0.43827243     0.10950
C735        C  0.10652583  0.14048041  0.49827687    -0.15180
C736        C  0.12720360  0.11026951  0.49202034     0.06970
C737        C  0.15857963  0.09318158  0.50071937    -0.15180
C738        C  0.17176333  0.10828214  0.51479142    -0.15180
C739        C  0.15313138  0.14012543  0.52035392     0.06970
C740        C  0.11927639  0.15520138  0.51232674    -0.15180
H741        H  0.08087882  0.15346082  0.49206490     0.10950
H742        H  0.17408561  0.06946452  0.49634984     0.10950
H743        H  0.19781239  0.09594873  0.52101534     0.10950
H744        H  0.10452006  0.17958348  0.51638217     0.10950
C745        C  0.39866290  0.06151146  0.87977220    -0.15180
C746        C  0.40148471  0.03871901  0.89258018     0.06970
C747        C  0.43672995  0.01579177  0.89392581    -0.15180
C748        C  0.46980731  0.01737887  0.88288915    -0.15180
C749        C  0.46748667  0.04155388  0.87034305     0.06970
C750        C  0.43068168  0.06262951  0.86878540    -0.15180
H751        H  0.37175861  0.07924333  0.87841632     0.10950
H752        H  0.43959613  0.99806772  0.90381836     0.10950
H753        H  0.99754294  0.00074020  0.88443563     0.10950
H754        H  0.42695901  0.08127717  0.85925396     0.10950
C755        C  0.18514240  0.09937871  0.89574682    -0.15180
C756        C  0.22062132  0.07735003  0.89322693     0.06970
C757        C  0.22400081  0.05888525  0.87926673    -0.15180
C758        C  0.19209314  0.06105044  0.86818551    -0.15180
C759        C  0.15486159  0.08091823  0.87086754     0.06970
C760        C  0.15209058  0.10091249  0.88464110    -0.15180
H761        H  0.18213048  0.11391520  0.90652505     0.10950
H762        H  0.25126787  0.04211503  0.87702444     0.10950
H763        H  0.19613631  0.04571384  0.85765872     0.10950
H764        H  0.12400668  0.11648246  0.88705290     0.10950
C765        C  0.19021504  0.31551372  0.89666995    -0.15180
C766        C  0.15547714  0.29156158  0.89519149     0.06970
C767        C  0.15474776  0.26779373  0.88251473    -0.15180
C768        C  0.18756054  0.26899560  0.87139447    -0.15180
C769        C  0.22085751  0.29441477  0.87273356     0.06970
C770        C  0.22194333  0.31712613  0.88559363    -0.15180
H771        H  0.19259875  0.33410768  0.90626761     0.10950
H772        H  0.12859576  0.24901986  0.88102889     0.10950
H773        H  0.18609206  0.25116857  0.86150956     0.10950
H774        H  0.24742121  0.33662411  0.88703660     0.10950
C775        C  0.43091340  0.30598513  0.89716499    -0.15180
C776        C  0.46833031  0.32667995  0.89557073     0.06970
C777        C  0.47106643  0.35103913  0.88310732    -0.15180
C778        C  0.43781598  0.35300392  0.87208327    -0.15180
C779        C  0.40194717  0.33030556  0.87337612     0.06970
C780        C  0.39860445  0.30753122  0.88619902    -0.15180
H781        H  0.42693777  0.28735355  0.90669659     0.10950
H782        H  0.99930005  0.36745813  0.88158623     0.10950
H783        H  0.44103461  0.37077808  0.86221730     0.10950
H784        H  0.37110895  0.29009853  0.88756868     0.10950
C785        C  0.47516427  0.43666705  0.93990012    -0.15180
C786        C  0.46404697  0.40014855  0.94053053     0.06970
C787        C  0.42121402  0.38983861  0.94142475    -0.15180
C788        C  0.38971621  0.41591182  0.94159852    -0.15180
C789        C  0.40096489  0.45242016  0.94142818     0.06970
C790        C  0.44377796  0.46271833  0.94059550    -0.15180
H791        H  0.00821313  0.44501619  0.93938981     0.10950
H792        H  0.41225498  0.36173865  0.94197096     0.10950
H793        H  0.35666901  0.40765686  0.94228970     0.10950
H794        H  0.45280525  0.49083150  0.94037641     0.10950
C795        C  0.20091783  0.21868864  0.94320109    -0.15180
C796        C  0.15857635  0.20888848  0.94018856     0.06970
C797        C  0.14770507  0.17259060  0.93808565    -0.15180
C798        C  0.17872146  0.14626393  0.93938663    -0.15180
C799        C  0.22101316  0.15616189  0.94230299     0.06970
C800        C  0.23212757  0.19245922  0.94398881    -0.15180
H801        H  0.20974254  0.24655198  0.94495211     0.10950
H802        H  0.11501216  0.16452854  0.93597647     0.10950
H803        H  0.16989167  0.11830310  0.93794655     0.10950
H804        H  0.26480098  0.20037551  0.94624539     0.10950
C805        C  0.43499801  0.20995968  0.95628791    -0.15180
C806        C  0.47699799  0.20013759  0.95278665     0.06970
C807        C  0.48568820  0.16381574  0.95014820    -0.15180
C808        C  0.45247695  0.13835097  0.94972089    -0.15180
C809        C  0.41005611  0.14850469  0.95233388     0.06970
C810        C  0.40195604  0.18430093  0.95632745    -0.15180
H811        H  0.42739692  0.23790728  0.95814997     0.10950
H812        H  0.01754067  0.15562967  0.94712638     0.10950
H813        H  0.45962590  0.11097266  0.94653628     0.10950
H814        H  0.36963611  0.19302311  0.95820484     0.10950
C815        C  0.13589794  0.44475379  0.94811341    -0.15180
C816        C  0.14362286  0.41016915  0.95383282     0.06970
C817        C  0.18477039  0.40202276  0.95918955    -0.15180
C818        C  0.21802927  0.42735876  0.95812243    -0.15180
C819        C  0.21109162  0.46092505  0.95116027     0.06970
C820        C  0.16932618  0.46974764  0.94666474    -0.15180
H821        H  0.10481970  0.45141613  0.94353520     0.10950
H822        H  0.19173726  0.37524644  0.96332142     0.10950
H823        H  0.24977754  0.41967868  0.96163430     0.10950
H824        H  0.16291799  0.49543446  0.94130114     0.10950
C825        C  0.20766175  0.50268737  0.01417297    -0.15180
C826        C  0.23136594  0.48000537  0.02402055     0.06970
C827        C  0.27171175  0.46914965  0.01941050    -0.15180
C828        C  0.28799463  0.48057810  0.00522411    -0.15180
C829        C  0.26436181  0.00322327  0.99533597     0.06970
C830        C  0.22403420  0.01423542  0.99996384    -0.15180
H831        H  0.17613896  0.51132545  0.01738495     0.10950
H832        H  0.29037871  0.45139950  0.02662991     0.10950
H833        H  0.31946790  0.47172706  0.00206043     0.10950
H834        H  0.20540148  0.03191674  0.99270531     0.10950
C835        C  0.16493007  0.36110070  0.01231046    -0.15180
C836        C  0.14022401  0.37810314  0.02369389     0.06970
C837        C  0.09687753  0.38315582  0.02099997    -0.15180
C838        C  0.07854879  0.37129721  0.00715389    -0.15180
C839        C  0.10331935  0.35429602  0.99577906     0.06970
C840        C  0.14664879  0.34929813  0.99848813    -0.15180
H841        H  0.19869385  0.35711297  0.01400431     0.10950
H842        H  0.07728186  0.39629513  0.02952654     0.10950
H843        H  0.04479355  0.37524058  0.00542419     0.10950
H844        H  0.16634439  0.33619328  0.98998233     0.10950
C845        C  0.41191863  0.09714017  0.01531793    -0.15180
C846        C  0.39097102  0.12310930  0.02428735     0.06970
C847        C  0.35306496  0.13782083  0.01888973    -0.15180
C848        C  0.33651648  0.12700602  0.00466467    -0.15180
C849        C  0.35750534  0.10117120  0.99563541     0.06970
C850        C  0.39529814  0.08625199  0.00107111    -0.15180
H851        H  0.44151774  0.08549716  0.01923158     0.10950
H852        H  0.33683487  0.15826859  0.02544833     0.10950
H853        H  0.30706178  0.13891552  0.00075867     0.10950
H854        H  0.41157957  0.06594637  0.99445162     0.10950
C855        C  0.01925938  0.04112806  0.07347984    -0.15180
C856        C  0.03180796  0.07727245  0.07332579     0.06970
C857        C  0.07464162  0.08714233  0.07257377    -0.15180
C858        C  0.10520727  0.06071841  0.07289368    -0.15180
C859        C  0.09268993  0.02461154  0.07352495     0.06970
C860        C  0.04982241  0.01467162  0.07335998    -0.15180
H861        H  0.48595110  0.03350711  0.07388710     0.10950
H862        H  0.08432043  0.11511213  0.07242249     0.10950
H863        H  0.13853494  0.06835449  0.07285354     0.10950
H864        H  0.04020226  0.48670508  0.07381588     0.10950
C865        C  0.35656231  0.31217841  0.07009338    -0.15180
C866        C  0.34432647  0.27596625  0.07047651     0.06970
C867        C  0.30150846  0.26585393  0.07017429    -0.15180
C868        C  0.27077456  0.29214413  0.07064879    -0.15180
C869        C  0.28306473  0.32834796  0.07101085     0.06970
C870        C  0.32580176  0.33847291  0.07015152    -0.15180
H871        H  0.38983042  0.31999912  0.07016111     0.10950
H872        H  0.29203516  0.23783966  0.07044804     0.10950
H873        H  0.23753711  0.28431589  0.07111236     0.10950
H874        H  0.33530070  0.36648167  0.07037264     0.10950
C875        C  0.35244672  0.04253017  0.06825463    -0.15180
C876        C  0.34466911  0.07854698  0.07206770     0.06970
C877        C  0.30270669  0.08887529  0.07520367    -0.15180
C878        C  0.26943088  0.06357999  0.07505859    -0.15180
C879        C  0.27756221  0.02725764  0.07216421     0.06970
C880        C  0.31923868  0.01696955  0.06854514    -0.15180
H881        H  0.38459067  0.03375653  0.06605808     0.10950
H882        H  0.29594004  0.11637289  0.07831700     0.10950
H883        H  0.23768617  0.07202292  0.07810215     0.10950
H884        H  0.32632167  0.48898643  0.06651796     0.10950
C885        C  0.02193025  0.31240022  0.06870550    -0.15180
C886        C  0.03054603  0.27555340  0.06972112     0.06970
C887        C  0.07310031  0.26442409  0.07016860    -0.15180
C888        C  0.10643624  0.28972901  0.07011898    -0.15180
C889        C  0.09774341  0.32661797  0.07011181     0.06970
C890        C  0.05524367  0.33774472  0.06913970    -0.15180
H891        H  0.48937033  0.32163103  0.06868952     0.10950
H892        H  0.08045239  0.23618967  0.07123235     0.10950
H893        H  0.13890444  0.28054867  0.07116686     0.10950
H894        H  0.04780359  0.36605473  0.06937482     0.10950
C895        C  0.45864087  0.24250765  0.01168018    -0.15180
C896        C  0.48375438  0.22435632  0.02273733     0.06970
C897        C  0.02669947  0.21864665  0.01967662    -0.15180
C898        C  0.04429782  0.23123274  0.00586460    -0.15180
C899        C  0.01921103  0.24967079  0.99488142     0.06970
C900        C  0.47619683  0.25505473  0.99789599    -0.15180
H901        H  0.42513634  0.24702133  0.01363748     0.10950
H902        H  0.04658618  0.20459098  0.02792140     0.10950
H903        H  0.07781947  0.22686739  0.00389261     0.10950
H904        H  0.45625076  0.26920227  0.98969847     0.10950
C905        C  0.08816635  0.15458819  0.14017592    -0.15180
C906        C  0.10397944  0.18903742  0.14385398     0.06970
C907        C  0.08620037  0.21909685  0.13662598    -0.15180
C908        C  0.05213680  0.21479037  0.12630798    -0.15180
C909        C  0.03597499  0.18034708  0.12284427     0.06970
C910        C  0.05476893  0.15025639  0.12964634    -0.15180
H911        H  0.10150842  0.13086861  0.14551775     0.10950
H912        H  0.09783214  0.24584923  0.13924860     0.10950
H913        H  0.03826966  0.23840881  0.12106781     0.10950
H914        H  0.54283211  0.12350517  0.12718426     0.10950
C915        C  0.28826896  0.20363332  0.13935973    -0.15180
C916        C  0.27244643  0.16902469  0.14271754     0.06970
C917        C  0.28934557  0.13937280  0.13502395    -0.15180
C918        C  0.32298664  0.14409884  0.12472122    -0.15180
C919        C  0.33959072  0.17858543  0.12171868     0.06970
C920        C  0.32129745  0.20842194  0.12879974    -0.15180
H921        H  0.27545144  0.22701393  0.14506058     0.10950
H922        H  0.27761045  0.11251547  0.13737173     0.10950
H923        H  0.33648908  0.12071494  0.11924005     0.10950
H924        H  0.33365658  0.23518104  0.12666251     0.10950
C925        C  0.33394688  0.46360105  0.13878931    -0.15180
C926        C  0.35226891  0.43372810  0.14602559     0.06970
C927        C  0.33744061  0.39913072  0.14202849    -0.15180
C928        C  0.30463746  0.39462375  0.13111104    -0.15180
C929        C  0.28558703  0.42467973  0.12425968     0.06970
C930        C  0.30082342  0.45913154  0.12813470    -0.15180
H931        H  0.34468106  0.49053326  0.14156023     0.10950
H932        H  0.35108709  0.37555686  0.14737936     0.10950
H933        H  0.29338400  0.36781926  0.12837139     0.10950
H934        H  0.28692981  0.48278797  0.12293272     0.10950
C935        C  0.04293920  0.38451822  0.13870097    -0.15180
C936        C  0.02408818  0.41466839  0.14541636     0.06970
C937        C  0.03846011  0.44913078  0.14102498    -0.15180
C938        C  0.07139161  0.45333721  0.13032689    -0.15180
C939        C  0.09113107  0.42315977  0.12400853     0.06970
C940        C  0.07631700  0.38872910  0.12819314    -0.15180
H941        H  0.53257761  0.35769539  0.14182522     0.10950
H942        H  0.02449862  0.47294959  0.14597052     0.10950
H943        H  0.08219350  0.48012540  0.12733924     0.10950
H944        H  0.09074219  0.36496350  0.12337863     0.10950
C945        C  0.01962329  0.06320875  0.18401083    -0.15180
C946        C  0.02995784  0.02766243  0.18047266     0.06970
C947        C  0.07180421  0.01897319  0.17658998    -0.15180
C948        C  0.10365140  0.04517803  0.17723011    -0.15180
C949        C  0.09407139  0.07988535  0.18230277     0.06970
C950        C  0.05173526  0.08915129  0.18517909    -0.15180
H951        H  0.48747562  0.07013042  0.18723507     0.10950
H952        H  0.08016712  0.49152024  0.17395427     0.10950
H953        H  0.13623504  0.03759160  0.17503293     0.10950
H954        H  0.04391240  0.11590775  0.18905712     0.10950
C955        C  0.35955926  0.29213079  0.18579665    -0.15180
C956        C  0.34856449  0.32851501  0.18538092     0.06970
C957        C  0.30572018  0.33818348  0.18406759    -0.15180
C958        C  0.27404750  0.31175571  0.18385535    -0.15180
C959        C  0.28490122  0.27554994  0.18547605     0.06970
C960        C  0.32777696  0.26574772  0.18613867    -0.15180
H961        H  0.39249899  0.28427241  0.18696460     0.10950
H962        H  0.29677303  0.36617839  0.18376773     0.10950
H963        H  0.24099944  0.31969675  0.18350859     0.10950
H964        H  0.33650172  0.23786078  0.18747440     0.10950
C965        C  0.31343509  0.01696510  0.20139817    -0.15180
C966        C  0.35580184  0.02855993  0.19954807     0.06970
C967        C  0.36331531  0.06469782  0.19561986    -0.15180
C968        C  0.32904830  0.08823088  0.19302285    -0.15180
C969        C  0.28659439  0.07623828  0.19454236     0.06970
C970        C  0.27943917  0.04049417  0.19912989    -0.15180
H971        H  0.30656799  0.48917401  0.20419514     0.10950
H972        H  0.39550395  0.07422944  0.19375324     0.10950
H973        H  0.33573477  0.11571217  0.18969328     0.10950
H974        H  0.24732355  0.03032677  0.20052916     0.10950
C975        C  0.07089913  0.33759957  0.20168693    -0.15180
C976        C  0.02816502  0.32647378  0.20058980     0.06970
C977        C  0.01936226  0.29002135  0.19769849    -0.15180
C978        C  0.05274248  0.26558684  0.19536281    -0.15180
C979        C  0.09554961  0.27701843  0.19619422     0.06970
C980        C  0.10405883  0.31316971  0.19975719    -0.15180
H981        H  0.07864807  0.36559268  0.20369342     0.10950
H982        H  0.48676748  0.28082954  0.19645732     0.10950
H983        H  0.04511181  0.23782706  0.19281658     0.10950
H984        H  0.13654658  0.32288166  0.20056680     0.10950
C985        C  0.41575189  0.31637504  0.35739305    -0.15180
C986        C  0.45639860  0.30151905  0.35920625     0.06970
C987        C  0.46806488  0.28752392  0.37378233    -0.15180
C988        C  0.44032393  0.29000063  0.38641333    -0.15180
C989        C  0.40119833  0.30738041  0.38468287     0.06970
C990        C  0.38879280  0.31973060  0.37003070    -0.15180
H991        H  0.40563885  0.32753653  0.34640453     0.10950
H992        H  0.99925316  0.27613018  0.37558140     0.10950
H993        H  0.45020547  0.28000265  0.39764422     0.10950
H994        H  0.35832821  0.33260427  0.36841478     0.10950
C995        C  0.20558565  0.35767315  0.35934589    -0.15180
C996        C  0.17861172  0.32779334  0.35734736     0.06970
C997        C  0.17723926  0.30093684  0.36871799    -0.15180
C998        C  0.20290738  0.30351426  0.38180864    -0.15180
C999        C  0.22977474  0.33333135  0.38390332     0.06970
C1000       C  0.23079422  0.36061690  0.37268582    -0.15180
H1001       H  0.20656239  0.37890252  0.35076517     0.10950
H1002       H  0.15650174  0.27775896  0.36740994     0.10950
H1003       H  0.20201452  0.28205688  0.39028720     0.10950
H1004       H  0.25197447  0.38349010  0.37401450     0.10950
C1005       C  0.13724767  0.20945283  0.27246726    -0.15180
C1006       C  0.12811752  0.24658190  0.27220707     0.06970
C1007       C  0.12092551  0.26334049  0.25802204    -0.15180
C1008       C  0.12186922  0.24322055  0.24439341    -0.15180
C1009       C  0.13079240  0.20592643  0.24458559     0.06970
C1010       C  0.13830987  0.18928977  0.25882140    -0.15180
H1011       H  0.14238052  0.19573481  0.28338636     0.10950
H1012       H  0.11275279  0.29147501  0.25751625     0.10950
H1013       H  0.11621473  0.25724322  0.23358834     0.10950
H1014       H  0.14588108  0.16103562  0.25938489     0.10950
C1015       C  0.04381065  0.40193787  0.25316186    -0.15180
C1016       C  0.52608210  0.38447235  0.24030154     0.06970
C1017       C  0.52088452  0.34669933  0.24108784    -0.15180
C1018       C  0.52927772  0.32741374  0.25481328    -0.15180
C1019       C  0.54235149  0.34566457  0.26819061     0.06970
C1020       C  0.05187049  0.38280162  0.26688582    -0.15180
H1021       H  0.04698784  0.43091119  0.25321263     0.10950
H1022       H  0.50594028  0.33245276  0.23160912     0.10950
H1023       H  0.52132249  0.29912900  0.25537421     0.10950
H1024       H  0.06215425  0.39781856  0.27699351     0.10950
C1025       C  0.41634132  0.02240914  0.37843944    -0.15180
C1026       C  0.39914785  0.05385488  0.37200797     0.06970
C1027       C  0.41895325  0.08691198  0.37544548    -0.15180
C1028       C  0.45499582  0.08864819  0.38499120    -0.15180
C1029       C  0.47324125  0.05726218  0.39095679     0.06970
C1030       C  0.45357868  0.02403260  0.38757252    -0.15180
H1031       H  0.40174654  0.99657086  0.37606326     0.10950
H1032       H  0.40643315  0.11163595  0.37073239     0.10950
H1033       H  0.46913048  0.11462366  0.38748634     0.10950
H1034       H  0.46657503  0.99941954  0.39220786     0.10950
C1035       C  0.20479909  0.06185817  0.37568304    -0.15180
C1036       C  0.22470976  0.09339243  0.37036921     0.06970
C1037       C  0.20832051  0.12676075  0.37489276    -0.15180
C1038       C  0.17226869  0.12831951  0.38447218    -0.15180
C1039       C  0.15285326  0.09653136  0.38988414     0.06970
C1040       C  0.16971896  0.06340374  0.38542876    -0.15180
H1041       H  0.21658134  0.03576441  0.37235227     0.10950
H1042       H  0.22277943  0.15144722  0.37078436     0.10950
H1043       H  0.16007240  0.15421053  0.38785892     0.10950
H1044       H  0.15550385  0.03848221  0.38941106     0.10950
C1045       C  0.23567216  0.13133285  0.27150227    -0.15180
C1046       C  0.24888788  0.09510542  0.27094139     0.06970
C1047       C  0.26420198  0.08172788  0.25694666    -0.15180
C1048       C  0.26601404  0.10390425  0.24386667    -0.15180
C1049       C  0.25209977  0.13996797  0.24438279     0.06970
C1050       C  0.23783025  0.15356572  0.25846376    -0.15180
H1051       H  0.22450885  0.14291017  0.28222666     0.10950
H1052       H  0.27576072  0.05451456  0.25620592     0.10950
H1053       H  0.27697922  0.09231770  0.23311392     0.10950
H1054       H  0.22661773  0.18086519  0.25924052     0.10950
C1055       C  0.46767936  0.19287806  0.30934504    -0.15180
C1056       C  0.45554302  0.22776338  0.31335810     0.06970
C1057       C  0.41795586  0.23283417  0.32173714    -0.15180
C1058       C  0.39261010  0.20314424  0.32584971    -0.15180
C1059       C  0.40465738  0.16831165  0.32152701     0.06970
C1060       C  0.44253268  0.16355084  0.31333558    -0.15180
H1061       H  0.99708926  0.18828674  0.30319616     0.10950
H1062       H  0.40888575  0.25945151  0.32540544     0.10950
H1063       H  0.36298619  0.20747729  0.33187531     0.10950
H1064       H  0.45224462  0.13705191  0.30970088     0.10950
C1065       C  0.21571877  0.44159645  0.31675433    -0.15180
C1066       C  0.21207091  0.46856952  0.32797310     0.06970
C1067       C  0.17296334  0.47397003  0.33521971    -0.15180
C1068       C  0.13835275  0.45149642  0.33168879    -0.15180
C1069       C  0.14216825  0.42427452  0.32048800     0.06970
C1070       C  0.18107768  0.41987478  0.31293868    -0.15180
H1071       H  0.24528209  0.43814469  0.31055185     0.10950
H1072       H  0.16905421  0.49585695  0.34331111     0.10950
H1073       H  0.10888489  0.45472455  0.33795061     0.10950
H1074       H  0.18544851  0.39835209  0.30469152     0.10950
C1075       C  0.24089239  0.20465009  0.32773965    -0.15180
C1076       C  0.22680197  0.16927285  0.32589034     0.06970
C1077       C  0.18321733  0.16114771  0.32718051    -0.15180
C1078       C  0.15364880  0.18879505  0.32868158    -0.15180
C1079       C  0.16771508  0.22458383  0.32925224     0.06970
C1080       C  0.21163659  0.23200158  0.32969079    -0.15180
H1081       H  0.27448370  0.21123345  0.32728686     0.10950
H1082       H  0.17195916  0.13371900  0.32606881     0.10950
H1083       H  0.12000797  0.18245852  0.32809822     0.10950
H1084       H  0.22327153  0.25942275  0.33023095     0.10950
C1085       C  0.42635718  0.46651682  0.34075925    -0.15180
C1086       C  0.39711149  0.46292728  0.32841077     0.06970
C1087       C  0.40259598  0.43558478  0.31756225    -0.15180
C1088       C  0.43758109  0.41306183  0.31872285    -0.15180
C1089       C  0.46706483  0.41693475  0.33095375     0.06970
C1090       C  0.46076393  0.44325051  0.34218287    -0.15180
H1091       H  0.42288886  0.48765303  0.34919510     0.10950
H1092       H  0.38071099  0.43239657  0.30792612     0.10950
H1093       H  0.44171935  0.39254084  0.30999433     0.10950
H1094       H  0.98313202  0.44661486  0.35165905     0.10950
C1095       C  0.36586146  0.03660629  0.25497220    -0.15180
C1096       C  0.36563938  0.02138668  0.26986420     0.06970
C1097       C  0.36938995  0.48355040  0.27098224    -0.15180
C1098       C  0.37402595  0.46188004  0.25789275    -0.15180
C1099       C  0.37580208  0.47700160  0.24310456     0.06970
C1100       C  0.37177735  0.01471225  0.24179991    -0.15180
H1101       H  0.36252850  0.06530405  0.25353075     0.10950
H1102       H  0.36904438  0.47022377  0.28213209     0.10950
H1103       H  0.37930732  0.43340428  0.25944933     0.10950
H1104       H  0.37541094  0.02753754  0.23065576     0.10950
O1105       O  0.35503384  0.52391685  0.29646315    -0.81970
O1106       O  0.36152722  0.57688578  0.34999452    -0.81990
O1107       O  0.37381696  0.61699102  0.31090495    -0.82000
O1108       O  0.36691139  0.01922467  0.33269559    -0.81940
O1109       O  0.34617087  0.63588588  0.33304168    -0.82070
O1110       O  0.32921521  0.98245908  0.31889403    -0.81990
O1111       O  0.33372850  0.52905236  0.36100782    -0.81970
O1112       O  0.34398436  0.57465711  0.28496149    -0.82010
C1113       C  0.35694939  0.54212745  0.28444698     1.07720
C1114       C  0.36284284  0.55312643  0.36085641     1.07600
C1115       C  0.37455820  0.63802877  0.32239978     1.07740
C1116       C  0.36289539  0.98923518  0.32647284     1.07620
O1117       O  0.24514161  0.01508835  0.31561645    -0.81970
O1118       O  0.25378618  0.61134246  0.32938109    -0.82050
O1119       O  0.25963948  0.59493743  0.29725436    -0.81980
O1120       O  0.26160388  0.56268829  0.35040406    -0.81960
O1121       O  0.28949305  0.61390612  0.35790783    -0.82020
O1122       O  0.27040846  0.54405681  0.28674338    -0.81980
O1123       O  0.27484632  0.99885176  0.33774928    -0.81940
O1124       O  0.28999103  0.64608266  0.31457023    -0.82010
Co1125     Co  0.29947908  0.51942906  0.30553839     1.51530
Co1126     Co  0.30741776  0.59302101  0.33837785     1.51690
Co1127     Co  0.31775766  0.60532120  0.30297124     1.51570
Co1128     Co  0.31510886  0.54212206  0.34021368     1.51470
O1129       O  0.31236949  0.56427522  0.31873356    -1.43910
C1130       C  0.24444302  0.99671259  0.32780384     1.07650
C1131       C  0.25769118  0.64097287  0.32290527     1.07740
C1132       C  0.25634689  0.57582416  0.28572662     1.07670
C1133       C  0.26053993  0.59011097  0.35941536     1.07650
O1134       O  0.51946337  0.88395998  0.31876538    -0.81970
O1135       O  0.12011026  0.79893182  0.28976324    -0.81990
O1136       O  0.09957632  0.88343387  0.33372905    -0.82000
O1137       O  0.04342292  0.79748310  0.28805424    -0.81940
O1138       O  0.10879055  0.87437137  0.30805463    -0.82070
O1139       O  0.52408002  0.85118277  0.29397816    -0.81990
O1140       O  0.09566123  0.74352260  0.29598614    -0.81970
O1141       O  0.01635125  0.87682420  0.34305036    -0.82010
C1142       C  0.50431122  0.89358072  0.33123136     1.07720
C1143       C  0.11613733  0.76400891  0.28683038     1.07600
C1144       C  0.11191550  0.89414022  0.32024735     1.07740
C1145       C  0.53731128  0.83013218  0.28410044     1.07620
O1146       O  0.47736426  0.78791842  0.30660257    -0.81970
O1147       O  0.15673484  0.84082672  0.33143676    -0.82050
O1148       O  0.02740159  0.80357362  0.34991544    -0.81980
O1149       O  0.09977333  0.75353189  0.32651834    -0.81960
O1150       O  0.15484652  0.77898655  0.31688229    -0.82020
O1151       O  0.47598135  0.82196173  0.33412769    -0.81980
O1152       O  0.02445944  0.74910137  0.31462457    -0.81940
O1153       O  0.11378793  0.81047627  0.34599109    -0.82010
Co1154     Co  0.50305715  0.83537660  0.31356057     1.51530
Co1155     Co  0.12739837  0.82480428  0.31172679     1.51690
Co1156     Co  0.06519380  0.84149663  0.34208524     1.51570
Co1157     Co  0.07238609  0.77792069  0.30864179     1.51470
O1158       O  0.06246299  0.81963643  0.32041491    -1.43910
C1159       C  0.48690428  0.75674287  0.31142640     1.07650
C1160       C  0.14913957  0.82560217  0.34421082     1.07740
C1161       C  0.48820031  0.80734492  0.34683369     1.07670
C1162       C  0.13934564  0.75393551  0.32475583     1.07650
O1163       O  0.51265437  0.92910112  0.21984314    -0.81970
O1164       O  0.47352158  0.88051338  0.16030488    -0.81990
O1165       O  0.45851853  0.85145929  0.20671159    -0.82000
O1166       O  0.46170560  0.99973683  0.17945915    -0.81940
O1167       O  0.50136862  0.88007522  0.19043496    -0.82070
O1168       O  0.51080995  0.97479476  0.19347752    -0.81990
O1169       O  0.48022906  0.93844949  0.16536393    -0.81970
O1170       O  0.45951149  0.89866844  0.23035642    -0.82010
C1171       C  0.99891740  0.90506183  0.22929231     1.07720
C1172       C  0.99070622  0.91070444  0.15735222     1.07600
C1173       C  0.49446923  0.85422004  0.19959969     1.07740
C1174       C  0.99976986  0.49902059  0.18415511     1.07620
O1175       O  0.42743429  0.50530926  0.20465565    -0.81970
O1176       O  0.41763655  0.85412754  0.18253616    -0.82050
O1177       O  0.38078221  0.93153514  0.22266525    -0.81980
O1178       O  0.40368283  0.96915862  0.15980103    -0.81960
O1179       O  0.39781917  0.91211291  0.16638375    -0.82020
O1180       O  0.43720153  0.96322910  0.22983241    -0.81980
O1181       O  0.38140894  0.47388745  0.19039264    -0.81940
O1182       O  0.37307341  0.88086411  0.19793905    -0.82010
Co1183     Co  0.47197693  0.96622772  0.21096589     1.51530
Co1184     Co  0.45232721  0.89890232  0.17934586     1.51690
Co1185     Co  0.41767189  0.89242770  0.21337516     1.51570
Co1186     Co  0.42821781  0.95373662  0.17880884     1.51470
O1187       O  0.44257236  0.92804691  0.19837620    -1.43910
C1188       C  0.38988790  0.50107346  0.19862899     1.07650
C1189       C  0.38096260  0.85606593  0.18845354     1.07740
C1190       C  0.39796630  0.95651609  0.23086653     1.07670
C1191       C  0.38639963  0.93871147  0.15774315     1.07650
O1192       O  0.22913761  0.69077626  0.22864488    -0.81970
O1193       O  0.21710078  0.63603963  0.15564787    -0.81990
O1194       O  0.21366628  0.59346199  0.19755851    -0.82000
O1195       O  0.21874802  0.74713342  0.17987543    -0.81940
O1196       O  0.25331477  0.62963018  0.18437585    -0.82070
O1197       O  0.25388285  0.73102032  0.20113038    -0.81990
O1198       O  0.23489656  0.68929215  0.16481411    -0.81970
O1199       O  0.23748896  0.63848706  0.21834492    -0.82010
C1200       C  0.24176352  0.65844113  0.22964197     1.07720
C1201       C  0.23965710  0.66440162  0.15466607     1.07600
C1202       C  0.24974339  0.60069991  0.19185835     1.07740
C1203       C  0.25156984  0.74904641  0.18867020     1.07620
O1204       O  0.16752471  0.75779150  0.19974491    -0.81970
O1205       O  0.16169757  0.60673395  0.17809211    -0.82050
O1206       O  0.15256946  0.65560150  0.22836146    -0.81980
O1207       O  0.16060888  0.72096551  0.15694436    -0.81960
O1208       O  0.14393277  0.66656197  0.16506316    -0.82020
O1209       O  0.14361288  0.70794426  0.21846202    -0.81980
O1210       O  0.12725235  0.72322078  0.18600642    -0.81940
O1211       O  0.12699462  0.62054063  0.19952222    -0.82010
Co1212     Co  0.19968766  0.71858467  0.21089211     1.51530
Co1213     Co  0.19937858  0.65058575  0.17588647     1.51690
Co1214     Co  0.18150288  0.63048470  0.20986562     1.51570
Co1215     Co  0.18060602  0.70361385  0.17664191     1.51470
O1216       O  0.19103144  0.67556107  0.19624575    -1.43910
C1217       C  0.13146873  0.75168228  0.19373318     1.07650
C1218       C  0.12866386  0.60444999  0.18659372     1.07740
C1219       C  0.14025172  0.68787073  0.22971721     1.07670
C1220       C  0.13797326  0.69267901  0.15556531     1.07650
O1221       O  0.47161755  0.70112761  0.11240032    -0.81970
O1222       O  0.48323428  0.69147966  0.04741398    -0.81990
O1223       O  0.46906343  0.59910779  0.08356744    -0.82000
O1224       O  0.46508765  0.74423213  0.06389475    -0.81940
O1225       O  0.50249065  0.63198056  0.06639585    -0.82070
O1226       O  0.49508159  0.73579613  0.08643444    -0.81990
O1227       O  0.42495106  0.71793315  0.03919184    -0.81970
O1228       O  0.49268563  0.64799983  0.10492026    -0.82010
C1229       C  0.49860526  0.67630770  0.11265148     1.07720
C1230       C  0.46357916  0.71051642  0.03691092     1.07600
C1231       C  0.50017024  0.60452535  0.07469681     1.07740
C1232       C  0.49593156  0.74965069  0.07322878     1.07620
O1233       O  0.40753703  0.75576371  0.08121711    -0.81970
O1234       O  0.41136080  0.60771660  0.06584864    -0.82050
O1235       O  0.40528128  0.65830270  0.11281508    -0.81980
O1236       O  0.39265883  0.65823158  0.04809426    -0.81960
O1237       O  0.45049946  0.63020923  0.04051099    -0.82020
O1238       O  0.38364957  0.70998807  0.10379812    -0.81980
O1239       O  0.37380374  0.72041592  0.06500983    -0.81940
O1240       O  0.38128761  0.62002436  0.08784933    -0.82010
Co1241     Co  0.43964907  0.72227223  0.09478418     1.51530
Co1242     Co  0.44896209  0.65254711  0.06003945     1.51690
Co1243     Co  0.43687270  0.63451975  0.09599560     1.51570
Co1244     Co  0.42725809  0.69882828  0.05938236     1.51470
O1245       O  0.43840305  0.67731703  0.08070865    -1.43910
C1246       C  0.37625967  0.74906566  0.07248204     1.07650
C1247       C  0.38024581  0.60410433  0.07510696     1.07740
C1248       C  0.37765367  0.68249841  0.11205361     1.07670
C1249       C  0.41181536  0.63766031  0.03814086     1.07650
O1250       O  0.15453248  0.90180341  0.11308945    -0.81970
O1251       O  0.14179296  0.91051148  0.04835502    -0.81990
O1252       O  0.15588937  0.00362893  0.08392793    -0.82000
O1253       O  0.16296985  0.85829196  0.06471604    -0.81940
O1254       O  0.12241442  0.96995871  0.06697643    -0.82070
O1255       O  0.13231984  0.86700452  0.08694068    -0.81990
O1256       O  0.20017583  0.88516098  0.03981566    -0.81970
O1257       O  0.13377897  0.95522531  0.10572940    -0.82010
C1258       C  0.12801582  0.92698230  0.11355023     1.07720
C1259       C  0.16116746  0.89189227  0.03776016     1.07600
C1260       C  0.12457186  0.99761587  0.07512135     1.07740
C1261       C  0.13192124  0.85286136  0.07380940     1.07620
O1262       O  0.22089133  0.84842430  0.08234049    -0.81970
O1263       O  0.21303112  0.99522446  0.06604276    -0.82050
O1264       O  0.22192597  0.94630010  0.11358917    -0.81980
O1265       O  0.23202543  0.94541397  0.04823061    -0.81960
O1266       O  0.17309938  0.97201189  0.04080619    -0.82020
O1267       O  0.24295816  0.89372994  0.10539760    -0.81980
O1268       O  0.25290971  0.88367951  0.06559879    -0.81940
O1269       O  0.24410955  0.98460497  0.08821636    -0.82010
Co1270     Co  0.18745208  0.88119551  0.09568888     1.51530
Co1271     Co  0.17607991  0.95003147  0.06055938     1.51690
Co1272     Co  0.18918231  0.96907701  0.09655252     1.51570
Co1273     Co  0.19890588  0.90447601  0.05998360     1.51470
O1274       O  0.18834593  0.92598660  0.08140050    -1.43910
C1275       C  0.25133146  0.85523321  0.07329887     1.07650
C1276       C  0.24412644  0.00000942  0.07531255     1.07740
C1277       C  0.24860483  0.92122712  0.11369710     1.07670
C1278       C  0.21178040  0.96531780  0.03819414     1.07650
O1279       O  0.07847552  0.75858903  0.97867362    -0.81970
O1280       O  0.03810080  0.83815614  0.90695614    -0.81990
O1281       O  0.99422001  0.84829639  0.95130098    -0.82000
O1282       O  0.99938209  0.74962203  0.93801012    -0.81940
O1283       O  0.03086890  0.87809871  0.93296409    -0.82070
O1284       O  0.04545160  0.73065655  0.95412246    -0.81990
O1285       O  0.99971789  0.79294036  0.91527048    -0.81970
O1286       O  0.01815698  0.78440744  0.97079548    -0.82010
C1287       C  0.03920568  0.76497803  0.98095201     1.07720
C1288       C  0.00399399  0.81960075  0.90654873     1.07600
C1289       C  0.49750850  0.87332591  0.94130536     1.07740
C1290       C  0.00852443  0.72828256  0.94848158     1.07620
O1291       O  0.12790561  0.76026263  0.95091109    -0.81970
O1292       O  0.12342207  0.85876297  0.94009679    -0.82050
O1293       O  0.04358040  0.84699107  0.97942509    -0.81980
O1294       O  0.08671031  0.77539560  0.90636345    -0.81960
O1295       O  0.12453616  0.81867290  0.91661600    -0.82020
O1296       O  0.10381788  0.82196700  0.97119293    -0.81980
O1297       O  0.09236347  0.73184695  0.93183044    -0.81940
O1298       O  0.07642733  0.87766785  0.95555327    -0.82010
Co1299     Co  0.07527041  0.77939044  0.95899230     1.51530
Co1300     Co  0.07860211  0.84623200  0.92518634     1.51690
Co1301     Co  0.04669579  0.82821981  0.95939326     1.51570
Co1302     Co  0.04518728  0.76455971  0.92398710     1.51470
O1303       O  0.06104201  0.80473152  0.93881346    -1.43910
C1304       C  0.12515173  0.73585109  0.94065523     1.07650
C1305       C  0.11342554  0.88059465  0.95015809     1.07740
C1306       C  0.08290810  0.84032793  0.98164067     1.07670
C1307       C  0.12039473  0.79453398  0.90667131     1.07650
O1308       O  0.29869191  0.59698835  0.97898609    -0.81970
O1309       O  0.34814994  0.51588602  0.90959000    -0.81990
O1310       O  0.37256276  0.00554055  0.95154005    -0.82000
O1311       O  0.37773792  0.60515376  0.93623653    -0.81940
O1312       O  0.33418157  0.97542169  0.93427721    -0.82070
O1313       O  0.33931654  0.62270867  0.95520690    -0.81990
O1314       O  0.36168858  0.57407969  0.90937143    -0.81970
O1315       O  0.35607355  0.56790925  0.97118494    -0.82010
C1316       C  0.33695023  0.58790808  0.98146796     1.07720
C1317       C  0.36902677  0.54267061  0.90477996     1.07600
C1318       C  0.36806889  0.97966704  0.94222063     1.07740
C1319       C  0.37460739  0.62348650  0.94818711     1.07620
O1320       O  0.24888227  0.60211461  0.95200184    -0.81970
O1321       O  0.24460353  0.00335961  0.93477272    -0.82050
O1322       O  0.32241275  0.50797048  0.97837472    -0.81980
O1323       O  0.27457062  0.59663978  0.91056945    -0.81960
O1324       O  0.26057496  0.53859557  0.90877482    -0.82020
O1325       O  0.26517528  0.53780176  0.97093634    -0.81980
O1326       O  0.28825562  0.63399313  0.93579658    -0.81940
O1327       O  0.28266673  0.98483806  0.95385867    -0.82010
Co1328     Co  0.30015796  0.57766800  0.95902764     1.51530
Co1329     Co  0.29734467  0.51167134  0.92319210     1.51690
Co1330     Co  0.32126829  0.52924403  0.95867311     1.51570
Co1331     Co  0.32512713  0.59889077  0.92427480     1.51470
O1332       O  0.31093846  0.55446230  0.93785667    -1.43910
C1333       C  0.25384374  0.62889116  0.94318775     1.07650
C1334       C  0.24735461  0.98485052  0.94675534     1.07740
C1335       C  0.28432505  0.51700312  0.98103913     1.07670
C1336       C  0.25335795  0.57077197  0.90511604     1.07650
O1337       O  0.11227978  0.57059466  0.41042039    -0.81970
O1338       O  0.09939709  0.62249885  0.46808088    -0.81990
O1339       O  0.12345915  0.62808203  0.43060442    -0.82000
O1340       O  0.13264940  0.53093289  0.44408226    -0.81940
O1341       O  0.08218980  0.66144218  0.44444223    -0.82070
O1342       O  0.09478386  0.50983349  0.42466479    -0.81990
O1343       O  0.11324761  0.56538236  0.47254880    -0.81970
O1344       O  0.09046228  0.62244583  0.40141780    -0.82010
C1345       C  0.11661052  0.59674749  0.40076899     1.07720
C1346       C  0.11385555  0.59824619  0.47652192     1.07600
C1347       C  0.11842394  0.65587963  0.43862712     1.07740
C1348       C  0.12860195  0.50979184  0.43280262     1.07620
O1349       O  0.00630750  0.53305147  0.43133137    -0.81970
O1350       O  0.99741901  0.62673871  0.44325492    -0.82050
O1351       O  0.01643215  0.58732986  0.41017073    -0.81980
O1352       O  0.03004676  0.53931309  0.46807911    -0.81960
O1353       O  0.01790609  0.59617343  0.47274891    -0.82020
O1354       O  0.03809733  0.53483288  0.40224095    -0.81980
O1355       O  0.04608537  0.49856892  0.44538563    -0.81940
O1356       O  0.03382874  0.64878018  0.42375699    -0.82010
Co1357     Co  0.05791457  0.55349440  0.42190493     1.51530
Co1358     Co  0.04871289  0.62301815  0.45574676     1.51690
Co1359     Co  0.07160626  0.60567545  0.42145011     1.51570
Co1360     Co  0.08112666  0.53715609  0.45618397     1.51470
O1361       O  0.06562399  0.58003166  0.44218691    -1.43910
C1362       C  0.01048751  0.50467562  0.43898484     1.07650
C1363       C  0.00058215  0.64831894  0.43208508     1.07740
C1364       C  0.01131390  0.55992522  0.40122190     1.07670
C1365       C  0.01828160  0.56352280  0.47693449     1.07650
O1366       O  0.36373724  0.78808537  0.40684116    -0.81970
O1367       O  0.30499625  0.87703816  0.47109686    -0.81990
O1368       O  0.37701861  0.88184708  0.42501862    -0.82000
O1369       O  0.37991515  0.78288986  0.44612639    -0.81940
O1370       O  0.34294905  0.89791037  0.44570697    -0.82070
O1371       O  0.34063198  0.74907499  0.43101438    -0.81990
O1372       O  0.36249381  0.84798527  0.46382886    -0.81970
O1373       O  0.35600967  0.84402761  0.39924352    -0.82010
C1374       C  0.37282712  0.81353711  0.39787184     1.07720
C1375       C  0.34349052  0.86906027  0.47375282     1.07600
C1376       C  0.37531742  0.90017881  0.43707568     1.07740
C1377       C  0.37540825  0.75535945  0.43779683     1.07620
O1378       O  0.25384601  0.77469563  0.42710823    -0.81970
O1379       O  0.25246160  0.87707857  0.44445801    -0.82050
O1380       O  0.26952120  0.86162590  0.40384246    -0.81980
O1381       O  0.32973107  0.78889637  0.47267649    -0.81960
O1382       O  0.27123066  0.81593621  0.46474564    -0.82020
O1383       O  0.27718676  0.80370433  0.40008784    -0.81980
O1384       O  0.28708997  0.76284236  0.44863538    -0.81940
O1385       O  0.28885032  0.90664276  0.42670609    -0.82010
Co1386     Co  0.30887043  0.78266326  0.41751801     1.51530
Co1387     Co  0.30514993  0.85422941  0.45157002     1.51690
Co1388     Co  0.32294511  0.87026113  0.41518689     1.51570
Co1389     Co  0.32735898  0.80725476  0.45242862     1.51470
O1390       O  0.31552900  0.82843308  0.43090348    -1.43910
C1391       C  0.25468802  0.75914082  0.43989571     1.07650
C1392       C  0.25560857  0.90238045  0.43476017     1.07740
C1393       C  0.26012325  0.83314895  0.39678877     1.07670
C1394       C  0.29127552  0.79673967  0.47518104     1.07650
O1395       O  0.39893867  0.94046539  0.54158811    -0.81970
O1396       O  0.39174222  0.93196413  0.60200896    -0.81990
O1397       O  0.42091286  0.88465652  0.55675353    -0.82000
O1398       O  0.41855369  0.52964159  0.58092872    -0.81940
O1399       O  0.38109302  0.90035359  0.57555841    -0.82070
O1400       O  0.37982831  0.50066884  0.56324728    -0.81990
O1401       O  0.41372658  0.98768348  0.60555203    -0.81970
O1402       O  0.45770083  0.91478818  0.53302155    -0.82010
C1403       C  0.41874649  0.92207706  0.53083953     1.07720
C1404       C  0.38841504  0.96205528  0.60845582     1.07600
C1405       C  0.38527984  0.88266216  0.56349453     1.07740
C1406       C  0.38450476  0.52578456  0.57298629     1.07620
O1407       O  0.46762328  0.52608996  0.56033653    -0.81970
O1408       O  0.47236705  0.87570458  0.57696713    -0.82050
O1409       O  0.48737878  0.97538726  0.54228517    -0.81980
O1410       O  0.50176308  0.96746713  0.60208725    -0.81960
O1411       O  0.48033723  0.91122050  0.60384302    -0.82020
O1412       O  0.42735390  0.00313465  0.53583450    -0.81980
O1413       O  0.51015812  0.50482815  0.57724005    -0.81940
O1414       O  0.50886591  0.90855833  0.55995792    -0.82010
Co1415     Co  0.43157270  0.47981996  0.55492869     1.51530
Co1416     Co  0.43198235  0.90811195  0.58838013     1.51690
Co1417     Co  0.45624707  0.93199428  0.55344417     1.51570
Co1418     Co  0.46040363  0.49433112  0.59007351     1.51470
O1419       O  0.44530175  0.95292100  0.57508527    -1.43910
C1420       C  0.50449652  0.52570787  0.56626546     1.07650
C1421       C  0.00553015  0.88156401  0.56885702     1.07740
C1422       C  0.46650351  0.99777109  0.53327738     1.07670
C1423       C  0.00564816  0.93642798  0.60757713     1.07650
O1424       O  0.23849303  0.71921205  0.54113459    -0.81970
O1425       O  0.25944997  0.71808857  0.59637961    -0.81990
O1426       O  0.21325946  0.77592151  0.55640539    -0.82000
O1427       O  0.22439685  0.63136152  0.58194518    -0.81940
O1428       O  0.25961234  0.75806378  0.57260933    -0.82070
O1429       O  0.26188452  0.65815030  0.56299234    -0.81990
O1430       O  0.21974791  0.67579700  0.60650994    -0.81970
O1431       O  0.17789976  0.74418251  0.53294048    -0.82010
C1432       C  0.21712267  0.73773108  0.53068925     1.07720
C1433       C  0.25429405  0.69377728  0.60623527     1.07600
C1434       C  0.25041843  0.77868233  0.56189745     1.07740
C1435       C  0.25788299  0.63439535  0.57352340     1.07620
O1436       O  0.17833290  0.62940916  0.55977565    -0.81970
O1437       O  0.16748287  0.77868549  0.57900292    -0.82050
O1438       O  0.15305386  0.68204815  0.54215075    -0.81980
O1439       O  0.13364210  0.69655146  0.59648022    -0.81960
O1440       O  0.17424268  0.73905159  0.60580380    -0.82020
O1441       O  0.21330625  0.65477927  0.53509780    -0.81980
O1442       O  0.13203171  0.65191850  0.57455355    -0.81940
O1443       O  0.13027100  0.74808026  0.56093297    -0.82010
Co1444     Co  0.20986439  0.67752960  0.55420462     1.51530
Co1445     Co  0.21439443  0.74637657  0.58739425     1.51690
Co1446     Co  0.18210160  0.72666703  0.55309117     1.51570
Co1447     Co  0.17802091  0.66581886  0.58879588     1.51470
O1448       O  0.19641838  0.70454025  0.57389923    -1.43910
C1449       C  0.14081016  0.62880538  0.56486762     1.07650
C1450       C  0.13415200  0.77394967  0.57050081     1.07740
C1451       C  0.17378713  0.66028884  0.53287989     1.07670
C1452       C  0.14043116  0.72017691  0.60646204     1.07650
O1453       O  0.39844934  0.71976290  0.65644842    -0.81970
O1454       O  0.40044428  0.71355091  0.71796698    -0.81990
O1455       O  0.42110797  0.62156921  0.68118349    -0.82000
O1456       O  0.42023277  0.76840454  0.70235330    -0.81940
O1457       O  0.38339089  0.65177246  0.69832363    -0.82070
O1458       O  0.38247741  0.75168052  0.68282074    -0.81990
O1459       O  0.45794541  0.74195586  0.72673239    -0.81970
O1460       O  0.41073692  0.66169151  0.65618466    -0.82010
C1461       C  0.39054876  0.68873864  0.65146136     1.07720
C1462       C  0.41914138  0.73327815  0.72861151     1.07600
C1463       C  0.38739717  0.62616664  0.68894711     1.07740
C1464       C  0.38537594  0.76961579  0.69494386     1.07620
O1465       O  0.47251289  0.77832697  0.68320072    -0.81970
O1466       O  0.47213916  0.62929551  0.70144518    -0.82050
O1467       O  0.49898860  0.68324813  0.65716369    -0.81980
O1468       O  0.49075059  0.68259548  0.71854821    -0.81960
O1469       O  0.43223434  0.65342265  0.72558447    -0.82020
O1470       O  0.48647017  0.74124075  0.65754858    -0.81980
O1471       O  0.50971726  0.74665613  0.70010579    -0.81940
O1472       O  0.51186288  0.64795158  0.68294045    -0.82010
Co1473     Co  0.43539625  0.74423383  0.67128188     1.51530
Co1474     Co  0.43505351  0.67462213  0.70589785     1.51690
Co1475     Co  0.46015649  0.65695470  0.67070233     1.51570
Co1476     Co  0.45735411  0.72285946  0.70657237     1.51470
O1477       O  0.44716861  0.69984164  0.68517860    -1.43910
C1478       C  0.00630783  0.77283424  0.69089720     1.07650
C1479       C  0.00767269  0.62862963  0.69460047     1.07740
C1480       C  0.00756207  0.71473718  0.65283358     1.07670
C1481       C  0.97070721  0.66177015  0.72842398     1.07650
O1482       O  0.08482299  0.59428518  0.85997981    -0.81970
O1483       O  0.04798843  0.52348723  0.78612131    -0.81990
O1484       O  0.12420806  0.01242853  0.82638663    -0.82000
O1485       O  0.12696806  0.61113906  0.81646514    -0.81940
O1486       O  0.07842908  0.99275069  0.81035295    -0.82070
O1487       O  0.08963868  0.63877913  0.83497231    -0.81990
O1488       O  0.10659782  0.55039362  0.79545854    -0.81970
O1489       O  0.12365302  0.55231562  0.84978841    -0.82010
C1490       C  0.11917104  0.57650583  0.85961560     1.07720
C1491       C  0.08734062  0.53150472  0.78460746     1.07600
C1492       C  0.11497360  0.99024848  0.81627366     1.07740
C1493       C  0.12322146  0.63515259  0.82675562     1.07620
O1494       O  0.99780194  0.61790966  0.82777561    -0.81970
O1495       O  0.99619667  0.02070625  0.81359063    -0.82050
O1496       O  0.03732844  0.53060024  0.85898958    -0.81980
O1497       O  0.08058027  0.61345093  0.78802500    -0.81960
O1498       O  0.02033917  0.58520232  0.79463407    -0.82020
O1499       O  0.99819095  0.57420867  0.85017859    -0.81980
O1500       O  0.04381231  0.63930923  0.81223194    -0.81940
O1501       O  0.03152452  0.99155817  0.83251185    -0.82010
Co1502     Co  0.04331504  0.60423372  0.84212608     1.51530
Co1503     Co  0.04884206  0.54183634  0.80628529     1.51690
Co1504     Co  0.07848584  0.52387561  0.84089325     1.51570
Co1505     Co  0.07560942  0.59157569  0.80744054     1.51470
O1506       O  0.06074922  0.56508991  0.82722585    -1.43910
C1507       C  0.00673860  0.64043995  0.81774015     1.07650
C1508       C  0.99877059  0.99610685  0.82378941     1.07740
C1509       C  0.00293309  0.54831924  0.85922791     1.07670
C1510       C  0.04178970  0.60588136  0.78502681     1.07650
O1511       O  0.13423133  0.95781688  0.66398494    -0.81970
O1512       O  0.15147884  0.96502042  0.71842210    -0.81990
O1513       O  0.17020203  0.87452948  0.67984088    -0.82000
O1514       O  0.17755430  0.52207986  0.70249892    -0.81940
O1515       O  0.13225805  0.90255550  0.69814190    -0.82070
O1516       O  0.13234974  0.50077297  0.68660919    -0.81990
O1517       O  0.20942983  0.99396803  0.72714597    -0.81970
O1518       O  0.17530029  0.91695902  0.65417794    -0.82010
C1519       C  0.14072502  0.93451358  0.65388380     1.07720
C1520       C  0.17047540  0.98501121  0.72896101     1.07600
C1521       C  0.13652549  0.87819421  0.68801652     1.07740
C1522       C  0.14076543  0.52333742  0.69668011     1.07620
O1523       O  0.22499895  0.52242993  0.68020748    -0.81970
O1524       O  0.21523070  0.87567875  0.70265170    -0.82050
O1525       O  0.26086806  0.93981284  0.66459613    -0.81980
O1526       O  0.23851547  0.93217603  0.71936136    -0.81960
O1527       O  0.17920012  0.90279082  0.72654556    -0.82020
O1528       O  0.21998968  0.98049859  0.65439309    -0.81980
O1529       O  0.26034001  0.49539069  0.69963301    -0.81940
O1530       O  0.26166522  0.89691300  0.68731292    -0.82010
Co1531     Co  0.17858863  0.98845340  0.67238149     1.51530
Co1532     Co  0.18313543  0.92348008  0.70689438     1.51690
Co1533     Co  0.21626936  0.90910033  0.67254776     1.51570
Co1534     Co  0.20851599  0.97402657  0.70727085     1.51470
O1535       O  0.19711195  0.94885616  0.68677021    -1.43910
C1536       C  0.25784989  0.51908046  0.68904328     1.07650
C1537       C  0.25238293  0.87434649  0.69728164     1.07740
C1538       C  0.25449081  0.96290602  0.65437210     1.07670
C1539       C  0.21796052  0.91131685  0.72911463     1.07650
O1540       O  0.27037314  0.77321143  0.85415687    -0.81970
O1541       O  0.31989668  0.86171688  0.78721233    -0.81990
O1542       O  0.24532878  0.86640895  0.83175378    -0.82000
O1543       O  0.24911774  0.76631926  0.81337728    -0.81940
O1544       O  0.28128800  0.88400381  0.81193754    -0.82070
O1545       O  0.28868317  0.73505879  0.82947309    -0.81990
O1546       O  0.26366136  0.83026882  0.79508950    -0.81970
O1547       O  0.26535953  0.83155733  0.85785318    -0.82010
C1548       C  0.25376104  0.79972920  0.86073286     1.07720
C1549       C  0.28153507  0.85199724  0.78508770     1.07600
C1550       C  0.24708332  0.88462475  0.81962286     1.07740
C1551       C  0.25383746  0.74009942  0.82243852     1.07620
O1552       O  0.37710853  0.76389075  0.83066450    -0.81970
O1553       O  0.37170732  0.86457442  0.81375491    -0.82050
O1554       O  0.35292685  0.85400694  0.85493131    -0.81980
O1555       O  0.29906053  0.77233479  0.78639551    -0.81960
O1556       O  0.35574465  0.80266158  0.79453605    -0.82020
O1557       O  0.35758526  0.79535345  0.85756661    -0.81980
O1558       O  0.34037471  0.74785040  0.81059343    -0.81940
O1559       O  0.33450815  0.89481419  0.83086836    -0.82010
Co1560     Co  0.32310823  0.77057134  0.84168475     1.51530
Co1561     Co  0.32011236  0.84027626  0.80692925     1.51690
Co1562     Co  0.29980583  0.85815152  0.84249470     1.51570
Co1563     Co  0.30030728  0.79159852  0.80656363     1.51470
O1564       O  0.31097611  0.81500316  0.82780790    -1.43910
C1565       C  0.37468543  0.74637610  0.81836853     1.07650
C1566       C  0.36793523  0.89054990  0.82294192     1.07740
C1567       C  0.36929077  0.82673368  0.86109423     1.07670
C1568       C  0.33720166  0.78236540  0.78408320     1.07650
C1569       C  0.23591656  0.85882108  0.74524338    -0.15180
C1570       C  0.23787032  0.89607918  0.74285458     0.06970
C1571       C  0.25011661  0.91877262  0.75499835    -0.15180
C1572       C  0.26111488  0.90424408  0.76934857    -0.15180
C1573       C  0.25952402  0.86696244  0.77171985     0.06970
C1574       C  0.24701023  0.84427235  0.75959807    -0.15180
H1575       H  0.22550188  0.84110064  0.73600968     0.10950
H1576       H  0.25011999  0.94764084  0.75348695     0.10950
H1577       H  0.27184961  0.92198458  0.77852676     0.10950
H1578       H  0.24738224  0.81539997  0.76106602     0.10950
C1579       C  0.15087589  0.53031073  0.76737809    -0.15180
C1580       C  0.10959090  0.51860641  0.77074358     0.06970
C1581       C  0.08793060  0.99636272  0.76006139    -0.15180
C1582       C  0.10713950  0.98608328  0.74625559    -0.15180
C1583       C  0.14837752  0.99784362  0.74286852     0.06970
C1584       C  0.17008859  0.52003635  0.75356361    -0.15180
H1585       H  0.16808120  0.54770753  0.77530261     0.10950
H1586       H  0.05586319  0.98700363  0.76230676     0.10950
H1587       H  0.08991719  0.96868748  0.73833730     0.10950
H1588       H  0.20218027  0.52934931  0.75132240     0.10950
C1589       C  0.42252717  0.98002411  0.82408439    -0.15180
C1590       C  0.46507242  0.96948824  0.82444180     0.06970
C1591       C  0.47564680  0.93305470  0.82458099    -0.14700
C1592       C  0.44374326  0.90714158  0.82394848    -0.15180
C1593       C  0.40118282  0.91762052  0.82364702     0.06970
C1594       C  0.39054325  0.95405424  0.82394882    -0.15180
H1595       H  0.41421854  0.50816942  0.82394675     0.10950
H1596       H  0.00857564  0.92473713  0.82469983     0.10950
H1597       H  0.45215932  0.87901842  0.82381001     0.10950
H1598       H  0.35761262  0.96232349  0.82367396     0.10950
C1599       C  0.19904244  0.65144282  0.82667187    -0.15180
C1600       C  0.15662875  0.66203584  0.82772254     0.06970
C1601       C  0.14610777  0.69849910  0.82743299    -0.15180
C1602       C  0.17789529  0.72426185  0.82544875    -0.15180
C1603       C  0.22025533  0.71355280  0.82417376     0.06970
C1604       C  0.23084392  0.67718172  0.82512944    -0.15180
H1605       H  0.20734807  0.62329155  0.82674891     0.10950
H1606       H  0.11324240  0.70685583  0.82798008     0.10950
H1607       H  0.16956768  0.75238347  0.82495492     0.10950
H1608       H  0.26359015  0.66867372  0.82423106     0.10950
C1609       C  0.16927136  0.90046203  0.81952933    -0.15180
C1610       C  0.21152260  0.90943454  0.81565837     0.06970
C1611       C  0.21978306  0.94380078  0.80956788    -0.15180
C1612       C  0.18727176  0.96941086  0.80856155    -0.15180
C1613       C  0.14542499  0.96088674  0.81306493     0.06970
C1614       C  0.13651960  0.92576488  0.81807631    -0.15180
H1615       H  0.16187092  0.87423634  0.82426319     0.10950
H1616       H  0.25195650  0.95169392  0.80660975     0.10950
H1617       H  0.19522531  0.49651896  0.80499628     0.10950
H1618       H  0.10488344  0.91871032  0.82200765     0.10950
C1619       C  0.43146820  0.65818667  0.81264644    -0.15180
C1620       C  0.47460105  0.66834003  0.81390832     0.06970
C1621       C  0.48469064  0.70512646  0.81457051    -0.15180
C1622       C  0.45216230  0.73089916  0.81519104    -0.15180
C1623       C  0.40899798  0.72047613  0.81461616     0.06970
C1624       C  0.39913815  0.68393517  0.81274390    -0.15180
H1625       H  0.42266172  0.63003048  0.81233183     0.10950
H1626       H  0.01748268  0.71375426  0.81584563     0.10950
H1627       H  0.46064797  0.75888082  0.81675642     0.10950
H1628       H  0.36625940  0.67503170  0.81250686     0.10950
C1629       C  0.42001171  0.76771420  0.75333111    -0.15180
C1630       C  0.39721320  0.74682151  0.74242555     0.06970
C1631       C  0.35486795  0.73771474  0.74538863    -0.15180
C1632       C  0.33576311  0.74908985  0.75905733    -0.15180
C1633       C  0.35868157  0.76972839  0.77001841     0.06970
C1634       C  0.40091736  0.77907415  0.76699678    -0.15180
H1635       H  0.45293638  0.77507976  0.75139711     0.10950
H1636       H  0.33670138  0.72159427  0.73724806     0.10950
H1637       H  0.30284680  0.74172169  0.76100768     0.10950
H1638       H  0.41913277  0.79510258  0.77515770     0.10950
C1639       C  0.02927159  0.83571444  0.68871316    -0.15180
C1640       C  0.03999794  0.79939335  0.68986681     0.06970
C1641       C  0.08252756  0.78884599  0.68936818    -0.15180
C1642       C  0.11431463  0.81473727  0.68778214    -0.15180
C1643       C  0.10350336  0.85110909  0.68710562     0.06970
C1644       C  0.06099673  0.86155993  0.68755311    -0.15180
H1645       H  0.49638940  0.84409463  0.68906238     0.10950
H1646       H  0.09096298  0.76077298  0.69007315     0.10950
H1647       H  0.14729231  0.80657373  0.68772477     0.10950
H1648       H  0.05251846  0.88966592  0.68719506     0.10950
C1649       C  0.36106692  0.56703946  0.69672644    -0.15180
C1650       C  0.35492641  0.59871128  0.68840808     0.06970
C1651       C  0.31813216  0.60378296  0.67959689    -0.15180
C1652       C  0.28696541  0.57707169  0.67924480    -0.15180
C1653       C  0.29231812  0.54551834  0.68794887     0.06970
C1654       C  0.32981846  0.54055843  0.69656567    -0.15180
H1655       H  0.38974032  0.56312030  0.70351499     0.10950
H1656       H  0.31347945  0.62840783  0.67316171     0.10950
H1657       H  0.25827482  0.58157379  0.67256173     0.10950
H1658       H  0.33478460  0.51648112  0.70335022     0.10950
C1659       C  0.35824973  0.82920917  0.70452407    -0.15180
C1660       C  0.34997095  0.79427437  0.69911493     0.06970
C1661       C  0.30753421  0.78467301  0.69562062    -0.15180
C1662       C  0.27461361  0.80986766  0.69667830    -0.15180
C1663       C  0.28349389  0.84554205  0.70086579     0.06970
C1664       C  0.32551705  0.85471555  0.70510679    -0.15180
H1665       H  0.39053811  0.83758268  0.70715925     0.10950
H1666       H  0.30011550  0.75799917  0.69138369     0.10950
H1667       H  0.24282899  0.80219967  0.69301535     0.10950
H1668       H  0.33341153  0.88219105  0.70810620     0.10950
C1669       C  0.08536010  0.61335516  0.69676210    -0.15180
C1670       C  0.04243834  0.60313319  0.69874619     0.06970
C1671       C  0.03341000  0.56714475  0.70244342    -0.15180
C1672       C  0.06609229  0.54155496  0.70286691    -0.15180
C1673       C  0.10876617  0.55150893  0.70016828     0.06970
C1674       C  0.11818182  0.58795552  0.69768463    -0.15180
H1675       H  0.09335085  0.64084558  0.69382207     0.10950
H1676       H  0.50077137  0.55828535  0.70385180     0.10950
H1677       H  0.05780078  0.51356860  0.70458338     0.10950
H1678       H  0.15051568  0.59636130  0.69525233     0.10950
C1679       C  0.03055918  0.65797081  0.74759012    -0.15180
C1680       C  0.99034201  0.64679286  0.74252343     0.06970
C1681       C  0.46658873  0.62270848  0.75176922    -0.15180
C1682       C  0.48260835  0.61012959  0.76581772    -0.15180
C1683       C  0.02278582  0.62125992  0.77090155     0.06970
C1684       C  0.04666074  0.64529184  0.76166146    -0.15180
H1685       H  0.04925189  0.67672769  0.74080573     0.10950
H1686       H  0.43524210  0.61363213  0.74820936     0.10950
H1687       H  0.46382595  0.59137238  0.77257113     0.10950
H1688       H  0.07803545  0.65421648  0.76525722     0.10950
C1689       C  0.09747218  0.75283199  0.62729440    -0.15180
C1690       C  0.10930241  0.72148391  0.61934933     0.06970
C1691       C  0.08841885  0.68911340  0.62296740    -0.15180
C1692       C  0.05604668  0.68779113  0.63373084    -0.15180
C1693       C  0.04293571  0.71878554  0.64151243     0.06970
C1694       C  0.06415783  0.75152416  0.63828908    -0.15180
H1695       H  0.11293117  0.77819093  0.62471177     0.10950
H1696       H  0.09684659  0.66429315  0.61727097     0.10950
H1697       H  0.04081460  0.66204241  0.63576133     0.10950
H1698       H  0.05503641  0.77584965  0.64419851     0.10950
C1699       C  0.31947321  0.71717997  0.61887785    -0.15180
C1700       C  0.28922146  0.68928668  0.61773838     0.06970
C1701       C  0.29400720  0.65892153  0.62732734    -0.15180
C1702       C  0.32822591  0.65715338  0.63799051    -0.15180
C1703       C  0.35727552  0.68603717  0.63929769     0.06970
C1704       C  0.35265256  0.71558392  0.62941659    -0.15180
H1705       H  0.31727588  0.74105161  0.61175802     0.10950
H1706       H  0.27149847  0.63684099  0.62660224     0.10950
H1707       H  0.33120841  0.63396313  0.64545473     0.10950
H1708       H  0.37463222  0.73811263  0.62997846     0.10950
C1709       C  0.33038143  0.99657180  0.62258998    -0.15180
C1710       C  0.35453407  0.96529500  0.62026083     0.06970
C1711       C  0.34469105  0.93456115  0.62890457    -0.15180
C1712       C  0.31192382  0.93459374  0.63954401    -0.15180
C1713       C  0.28732270  0.96537226  0.64204566     0.06970
C1714       C  0.29657748  0.99652233  0.63337514    -0.15180
H1715       H  0.33707785  0.02056690  0.61591694     0.10950
H1716       H  0.36258284  0.91008494  0.62745362     0.10950
H1717       H  0.30577921  0.90994793  0.64585043     0.10950
H1718       H  0.27835198  0.02068003  0.63509875     0.10950
C1719       C  0.06419153  0.90091925  0.62175431    -0.15180
C1720       C  0.03994302  0.93223783  0.61943243     0.06970
C1721       C  0.05008971  0.96274312  0.62823532    -0.15180
C1722       C  0.08315065  0.96262549  0.63885055    -0.15180
C1723       C  0.10780632  0.93188451  0.64138602     0.06970
C1724       C  0.09825033  0.90081317  0.63264551    -0.15180
H1725       H  0.05737390  0.87703564  0.61503296     0.10950
H1726       H  0.03216124  0.48727539  0.62694115     0.10950
H1727       H  0.08929563  0.48722992  0.64517362     0.10950
H1728       H  0.11644553  0.87660777  0.63438021     0.10950
C1729       C  0.08154077  0.86428256  0.57060088    -0.15180
C1730       C  0.03871541  0.85437894  0.56904329     0.06970
C1731       C  0.02723467  0.81794177  0.56832409    -0.15180
C1732       C  0.05834653  0.79159343  0.56886551    -0.15180
C1733       C  0.10115742  0.80139021  0.57065149     0.06970
C1734       C  0.11259965  0.83785362  0.57163260    -0.15180
H1735       H  0.09076364  0.89230284  0.57131043     0.10950
H1736       H  0.49418374  0.80993272  0.56713205     0.10950
H1737       H  0.04902677  0.76361463  0.56801866     0.10950
H1738       H  0.14564504  0.84587875  0.57280972     0.10950
C1739       C  0.30907685  0.54392813  0.57501088    -0.15180
C1740       C  0.35211564  0.55340795  0.57405277     0.06970
C1741       C  0.36431417  0.58970840  0.57376248    -0.15180
C1742       C  0.33357209  0.61638098  0.57385985    -0.15180
C1743       C  0.29050065  0.60693403  0.57479474     0.06970
C1744       C  0.27839652  0.57063937  0.57563523    -0.15180
H1745       H  0.29933489  0.51598725  0.57528524     0.10950
H1746       H  0.39754720  0.59734122  0.57293887     0.10950
H1747       H  0.34328702  0.64428414  0.57311627     0.10950
H1748       H  0.24512705  0.56297365  0.57614840     0.10950
C1749       C  0.03195115  0.58692593  0.55841251    -0.15180
C1750       C  0.03973122  0.55075378  0.56184468     0.06970
C1751       C  0.08234042  0.53973373  0.56349766    -0.15180
C1752       C  0.11613311  0.56464348  0.56279807    -0.15180
C1753       C  0.10798446  0.60129249  0.56082045     0.06970
C1754       C  0.06566419  0.61199294  0.55815611    -0.15180
H1755       H  0.99962056  0.59631182  0.55718869     0.10950
H1756       H  0.08935884  0.51199524  0.56615359     0.10950
H1757       H  0.14820429  0.55566725  0.56511387     0.10950
H1758       H  0.05845125  0.64017058  0.55673260     0.10950
C1759       C  0.30736946  0.86827044  0.56110369    -0.15180
C1760       C  0.34988438  0.85795473  0.55870843     0.06970
C1761       C  0.35766574  0.82225744  0.55445584    -0.15180
C1762       C  0.32422063  0.79685469  0.55408025    -0.15180
C1763       C  0.28209084  0.80678475  0.55743502     0.06970
C1764       C  0.27383282  0.84309528  0.56030079    -0.15180
H1765       H  0.30034727  0.89554468  0.56448828     0.10950
H1766       H  0.38996837  0.81332115  0.55274394     0.10950
H1767       H  0.33163189  0.76891072  0.55211522     0.10950
H1768       H  0.24201258  0.85143333  0.56328965     0.10950
C1769       C  0.22812195  0.78527136  0.49211395    -0.15180
C1770       C  0.27158611  0.78221840  0.48934992     0.06970
C1771       C  0.29748161  0.76496990  0.50047088    -0.15180
C1772       C  0.28020473  0.75066608  0.51400627    -0.15180
C1773       C  0.23668880  0.75339600  0.51671543     0.06970
C1774       C  0.21081958  0.77094497  0.50566429    -0.15180
H1775       H  0.20757042  0.79840386  0.48379853     0.10950
H1776       H  0.33139621  0.76247502  0.49874094     0.10950
H1777       H  0.30079878  0.73747893  0.52229082     0.10950
H1778       H  0.17690562  0.77340583  0.50740063     0.10950
C1779       C  0.40402679  0.87227548  0.49280502    -0.15180
C1780       C  0.36408637  0.88393600  0.48788325     0.06970
C1781       C  0.34146567  0.90786885  0.49743706    -0.15180
C1782       C  0.35832692  0.91974188  0.51160311    -0.15180
C1783       C  0.39825822  0.90801960  0.51652700     0.06970
C1784       C  0.42089611  0.88417573  0.50693945    -0.15180
H1785       H  0.42191704  0.85357547  0.48586985     0.10950
H1786       H  0.31030669  0.91726184  0.49403673     0.10950
H1787       H  0.34040824  0.93833306  0.51858186     0.10950
H1788       H  0.45197561  0.87460975  0.51034675     0.10950
C1789       C  0.03144395  0.52205207  0.49868988    -0.15180
C1790       C  0.00857351  0.55161753  0.49277299     0.06970
C1791       C  0.47725019  0.56725662  0.50183154    -0.15180
C1792       C  0.46597140  0.55104896  0.51585742    -0.15180
C1793       C  0.98619144  0.51935591  0.52097618     0.06970
C1794       C  0.02038368  0.50605553  0.51268293    -0.15180
H1795       H  0.05703989  0.51027181  0.49212049     0.10950
H1796       H  0.46000854  0.59042383  0.49770029     0.10950
H1797       H  0.43979579  0.56221235  0.52231254     0.10950
H1798       H  0.03650318  0.98195061  0.51641422     0.10950
C1799       C  0.42619315  0.66615431  0.43348431    -0.15180
C1800       C  0.46853376  0.67586827  0.43082188     0.06970
C1801       C  0.48069436  0.71218742  0.43052679    -0.15180
C1802       C  0.45063754  0.73865154  0.43342216    -0.15180
C1803       C  0.40843153  0.72866783  0.43634262     0.06970
C1804       C  0.39625471  0.69241147  0.43608755    -0.15180
H1805       H  0.41665250  0.63817247  0.43404559     0.10950
H1806       H  0.01366108  0.71988081  0.42888962     0.10950
H1807       H  0.46007631  0.76666474  0.43322848     0.10950
H1808       H  0.36355341  0.68438989  0.43813969     0.10950
C1809       C  0.14873469  0.94599992  0.43096775    -0.15180
C1810       C  0.16069901  0.98234932  0.43085429     0.06970
C1811       C  0.20367478  0.99211469  0.43174621    -0.15180
C1812       C  0.23453281  0.96576915  0.43282716    -0.15180
C1813       C  0.22261533  0.92946738  0.43356766     0.06970
C1814       C  0.17964358  0.91957142  0.43254038    -0.15180
H1815       H  0.11547083  0.93822374  0.43066742     0.10950
H1816       H  0.21318289  0.52012388  0.43195914     0.10950
H1817       H  0.26769244  0.97374782  0.43356240     0.10950
H1818       H  0.17015628  0.89158001  0.43291830     0.10950
C1819       C  0.40712221  0.95776148  0.42914590    -0.15180
C1820       C  0.40736206  0.92846651  0.43929379     0.06970
C1821       C  0.44079653  0.92471209  0.44996651    -0.15180
C1822       C  0.47451718  0.94965446  0.45008425    -0.15180
C1823       C  0.47474232  0.97867121  0.43962554     0.06970
C1824       C  0.44020230  0.98280188  0.42940186    -0.15180
H1825       H  0.38168396  0.96078164  0.42074241     0.10950
H1826       H  0.44152658  0.90193332  0.45776457     0.10950
H1827       H  0.00054818  0.94604281  0.45817371     0.10950
H1828       H  0.43923514  0.50491586  0.42126517     0.10950
C1829       C  0.19618735  0.67102217  0.43913729    -0.15180
C1830       C  0.15380494  0.68195705  0.44081866     0.06970
C1831       C  0.14564893  0.71812109  0.44426194    -0.15180
C1832       C  0.17904961  0.74321153  0.44505873    -0.15180
C1833       C  0.22120598  0.73232089  0.44297789     0.06970
C1834       C  0.22959701  0.69595179  0.44033951    -0.15180
H1835       H  0.20343115  0.64330914  0.43658400     0.10950
H1836       H  0.11330795  0.72730398  0.44560807     0.10950
H1837       H  0.17190738  0.77132199  0.44670501     0.10950
H1838       H  0.26183589  0.68721990  0.43827276     0.10950
C1839       C  0.10652620  0.64047821  0.49827792    -0.15180
C1840       C  0.12720585  0.61026964  0.49202000     0.06970
C1841       C  0.15858516  0.59318273  0.50071781    -0.15180
C1842       C  0.17176997  0.60828236  0.51478992    -0.15180
C1843       C  0.15313608  0.64012374  0.52035360     0.06970
C1844       C  0.11927816  0.65519835  0.51232771    -0.15180
H1845       H  0.08087628  0.65345766  0.49206718     0.10950
H1846       H  0.17409242  0.56946720  0.49634736     0.10950
H1847       H  0.19782116  0.59594978  0.52101294     0.10950
H1848       H  0.10452002  0.67957878  0.51638413     0.10950
C1849       C  0.39866134  0.56150969  0.87977159    -0.15180
C1850       C  0.40148400  0.53871828  0.89257990     0.06970
C1851       C  0.43673021  0.51579226  0.89392593    -0.15180
C1852       C  0.46980760  0.51737950  0.88288928    -0.15180
C1853       C  0.46748613  0.54155351  0.87034285     0.06970
C1854       C  0.43068025  0.56262790  0.86878482    -0.15180
H1855       H  0.37175638  0.57924076  0.87841549     0.10950
H1856       H  0.43959712  0.49806919  0.90381877     0.10950
H1857       H  0.99754410  0.50074192  0.88443607     0.10950
H1858       H  0.42695704  0.58127478  0.85925313     0.10950
C1859       C  0.18513981  0.59937762  0.89574768    -0.15180
C1860       C  0.22062149  0.57735275  0.89322682     0.06970
C1861       C  0.22400364  0.55889201  0.87926571    -0.15180
C1862       C  0.19209576  0.56105716  0.86818452    -0.15180
C1863       C  0.15486154  0.58092069  0.87086751     0.06970
C1864       C  0.15208799  0.60091135  0.88464196    -0.15180
H1865       H  0.18212577  0.61391086  0.90652664     0.10950
H1866       H  0.25127275  0.54212464  0.87702275     0.10950
H1867       H  0.19614072  0.54572360  0.85765700     0.10950
H1868       H  0.12400194  0.61647794  0.88705452     0.10950
C1869       C  0.19021599  0.81551257  0.89667035    -0.15180
C1870       C  0.15547759  0.79156102  0.89519171     0.06970
C1871       C  0.15474788  0.76779346  0.88251485    -0.15180
C1872       C  0.18756077  0.76899517  0.87139464    -0.15180
C1873       C  0.22085815  0.79441388  0.87273389     0.06970
C1874       C  0.22194438  0.81712485  0.88559408    -0.15180
H1875       H  0.19259998  0.83410625  0.90626811     0.10950
H1876       H  0.12859549  0.74902004  0.88102887     0.10950
H1877       H  0.18609201  0.75116848  0.86150961     0.10950
H1878       H  0.24742260  0.83662247  0.88703713     0.10950
C1879       C  0.43091302  0.80598672  0.89716545    -0.15180
C1880       C  0.46833044  0.82668077  0.89557096     0.06970
C1881       C  0.47106695  0.85103949  0.88310738    -0.15180
C1882       C  0.43781641  0.85300444  0.87208337    -0.15180
C1883       C  0.40194710  0.83030673  0.87337645     0.06970
C1884       C  0.39860395  0.80753298  0.88619952    -0.15180
H1885       H  0.42693711  0.78735554  0.90669718     0.10950
H1886       H  0.99930095  0.86745794  0.88158611     0.10950
H1887       H  0.44103538  0.87077807  0.86221724     0.10950
H1888       H  0.37110810  0.79010075  0.88756932     0.10950
C1889       C  0.47516492  0.93666704  0.93990042    -0.15180
C1890       C  0.46404763  0.90014853  0.94053085     0.06970
C1891       C  0.42121474  0.88983859  0.94142533    -0.15180
C1892       C  0.38971697  0.91591177  0.94159932    -0.15180
C1893       C  0.40096565  0.95242010  0.94142892     0.06970
C1894       C  0.44377866  0.96271831  0.94059599    -0.15180
H1895       H  0.00821372  0.94501622  0.93938992     0.10950
H1896       H  0.41225571  0.86173862  0.94197158     0.10950
H1897       H  0.35666980  0.90765679  0.94229066     0.10950
H1898       H  0.45280590  0.99083149  0.94037683     0.10950
C1899       C  0.20091811  0.71868867  0.94320052    -0.15180
C1900       C  0.15857645  0.70888838  0.94018841     0.06970
C1901       C  0.14770507  0.67259042  0.93808583    -0.15180
C1902       C  0.17872154  0.64626382  0.93938675    -0.15180
C1903       C  0.22101344  0.65616189  0.94230266     0.06970
C1904       C  0.23212793  0.69245929  0.94398815    -0.15180
H1905       H  0.20974288  0.74655209  0.94495129     0.10950
H1906       H  0.11501202  0.66452828  0.93597699     0.10950
H1907       H  0.16989164  0.61830292  0.93794698     0.10950
H1908       H  0.26480146  0.70037568  0.94624442     0.10950
C1909       C  0.43499785  0.70995998  0.95628785    -0.15180
C1910       C  0.47699788  0.70013775  0.95278672     0.06970
C1911       C  0.48568812  0.66381580  0.95014856    -0.15180
C1912       C  0.45247686  0.63835101  0.94972139    -0.15180
C1913       C  0.41005596  0.64850484  0.95233423     0.06970
C1914       C  0.40195585  0.68430123  0.95632752    -0.15180
H1915       H  0.42739674  0.73790764  0.95814971     0.10950
H1916       H  0.01754062  0.65562963  0.94712696     0.10950
H1917       H  0.45962586  0.61097259  0.94653699     0.10950
H1918       H  0.36963590  0.69302350  0.95820477     0.10950
C1919       C  0.13589835  0.94475364  0.94811344    -0.15180
C1920       C  0.14362333  0.91016903  0.95383288     0.06970
C1921       C  0.18477089  0.90202270  0.95918959    -0.15180
C1922       C  0.21802970  0.92735873  0.95812245    -0.15180
C1923       C  0.21109200  0.96092498  0.95116026     0.06970
C1924       C  0.16932656  0.96974752  0.94666472    -0.15180
H1925       H  0.10482008  0.95141594  0.94353525     0.10950
H1926       H  0.19173782  0.87524640  0.96332148     0.10950
H1927       H  0.24977800  0.91967869  0.96163431     0.10950
H1928       H  0.16291835  0.99543432  0.94130110     0.10950
C1929       C  0.20765930  0.00268388  0.01417212    -0.15180
C1930       C  0.23136527  0.98000522  0.02402058     0.06970
C1931       C  0.27171350  0.96915339  0.01941161    -0.15180
C1932       C  0.28799699  0.98058231  0.00522539    -0.15180
C1933       C  0.26436131  0.50322256  0.99533561     0.06970
C1934       C  0.22403608  0.51423848  0.99996453    -0.15180
H1935       H  0.17613464  0.01131890  0.01738325     0.10950
H1936       H  0.29038206  0.95140604  0.02663176     0.10950
H1937       H  0.31947216  0.97173435  0.00206256     0.10950
H1938       H  0.20540495  0.53192262  0.99270675     0.10950
C1939       C  0.16493029  0.86110027  0.01231061    -0.15180
C1940       C  0.14022410  0.87810248  0.02369406     0.06970
C1941       C  0.09687758  0.88315493  0.02100017    -0.15180
C1942       C  0.07854893  0.87129635  0.00715407    -0.15180
C1943       C  0.10331962  0.85429545  0.99577920     0.06970
C1944       C  0.14664910  0.84929773  0.99848825    -0.15180
H1945       H  0.19869410  0.85711272  0.01400445     0.10950
H1946       H  0.07728180  0.89629405  0.02952676     0.10950
H1947       H  0.04479366  0.87523957  0.00542438     0.10950
H1948       H  0.16634479  0.83619310  0.98998243     0.10950
C1949       C  0.41191865  0.59713984  0.01531787    -0.15180
C1950       C  0.39097114  0.62310909  0.02428727     0.06970
C1951       C  0.35306510  0.63782063  0.01888963    -0.15180
C1952       C  0.33651653  0.62700571  0.00466459    -0.15180
C1953       C  0.35750526  0.60117075  0.99563536     0.06970
C1954       C  0.39529805  0.58625153  0.00107107    -0.15180
H1955       H  0.44151775  0.58549683  0.01923153     0.10950
H1956       H  0.33683509  0.65826848  0.02544819     0.10950
H1957       H  0.30706186  0.63891524  0.00075859     0.10950
H1958       H  0.41157940  0.56594583  0.99445161     0.10950
C1959       C  0.01925985  0.54112833  0.07347976    -0.15180
C1960       C  0.03180837  0.57727273  0.07332584     0.06970
C1961       C  0.07464203  0.58714269  0.07257398    -0.15180
C1962       C  0.10520773  0.56071880  0.07289390    -0.15180
C1963       C  0.09269043  0.52461191  0.07352502     0.06970
C1964       C  0.04982292  0.51467194  0.07335991    -0.15180
H1965       H  0.48595156  0.53350734  0.07388693     0.10950
H1966       H  0.08432077  0.61511250  0.07242280     0.10950
H1967       H  0.13853539  0.56835492  0.07285386     0.10950
H1968       H  0.04020172  0.98670478  0.07381606     0.10950
C1969       C  0.35656245  0.81217838  0.07009324    -0.15180
C1970       C  0.34432654  0.77596623  0.07047637     0.06970
C1971       C  0.30150851  0.76585397  0.07017419    -0.15180
C1972       C  0.27077467  0.79214423  0.07064877    -0.15180
C1973       C  0.28306493  0.82834803  0.07101087     0.06970
C1974       C  0.32580195  0.83847292  0.07015146    -0.15180
H1975       H  0.38983058  0.81999904  0.07016094     0.10950
H1976       H  0.29203516  0.73783972  0.07044794     0.10950
H1977       H  0.23753722  0.78431603  0.07111240     0.10950
H1978       H  0.33530095  0.86648167  0.07037260     0.10950
C1979       C  0.35244905  0.54252827  0.06825668    -0.15180
C1980       C  0.34467026  0.57854611  0.07206756     0.06970
C1981       C  0.30270697  0.58887527  0.07520149    -0.15180
C1982       C  0.26943120  0.56357987  0.07505642    -0.15180
C1983       C  0.27756349  0.52725671  0.07216425     0.06970
C1984       C  0.31924104  0.51696769  0.06854732    -0.15180
H1985       H  0.38459365  0.53375408  0.06606179     0.10950
H1986       H  0.29593949  0.61637371  0.07831319     0.10950
H1987       H  0.23768559  0.57202359  0.07809834     0.10950
H1988       H  0.32631862  0.98898884  0.06651406     0.10950
C1989       C  0.02193053  0.81240008  0.06870545    -0.15180
C1990       C  0.03054620  0.77555326  0.06972117     0.06970
C1991       C  0.07310046  0.76442389  0.07016881    -0.15180
C1992       C  0.10643644  0.78972877  0.07011925    -0.15180
C1993       C  0.09774369  0.82661773  0.07011198     0.06970
C1994       C  0.05524399  0.83774454  0.06913971    -0.15180
H1995       H  0.48937018  0.82163133  0.06869063     0.10950
H1996       H  0.08045246  0.73618947  0.07123264     0.10950
H1997       H  0.13890461  0.78054839  0.07116724     0.10950
H1998       H  0.04780397  0.86605456  0.06937474     0.10950
C1999       C  0.45864106  0.74250739  0.01168010    -0.15180
C2000       C  0.48375456  0.72435623  0.02273730     0.06970
C2001       C  0.02669968  0.71864663  0.01967665    -0.15180
C2002       C  0.04429808  0.73123264  0.00586462    -0.15180
C2003       C  0.01921130  0.74967058  0.99488141     0.06970
C2004       C  0.47619709  0.75505441  0.99789591    -0.15180
H2005       H  0.42513649  0.74702099  0.01363735     0.10950
H2006       H  0.04658637  0.70459103  0.02792146     0.10950
H2007       H  0.07781975  0.72686732  0.00389266     0.10950
H2008       H  0.45625103  0.76920182  0.98969835     0.10950
C2009       C  0.08816658  0.65458829  0.14017582    -0.15180
C2010       C  0.10397937  0.68903754  0.14385401     0.06970
C2011       C  0.08619994  0.71909701  0.13662615    -0.15180
C2012       C  0.05213632  0.71479053  0.12630816    -0.15180
C2013       C  0.03597481  0.68034720  0.12284433     0.06970
C2014       C  0.05476911  0.65025650  0.12964625    -0.15180
H2015       H  0.10150894  0.63086869  0.14551754     0.10950
H2016       H  0.09783147  0.74584941  0.13924887     0.10950
H2017       H  0.03826892  0.73840898  0.12106811     0.10950
H2018       H  0.54283251  0.62350529  0.12718407     0.10950
C2019       C  0.28826871  0.70363335  0.13935962    -0.15180
C2020       C  0.27244633  0.66902471  0.14271750     0.06970
C2021       C  0.28934559  0.63937278  0.13502398    -0.15180
C2022       C  0.32298663  0.64409881  0.12472124    -0.15180
C2023       C  0.33959056  0.67858542  0.12171861     0.06970
C2024       C  0.32129717  0.70842195  0.12879961    -0.15180
H2025       H  0.27545110  0.72701398  0.14506043     0.10950
H2026       H  0.27761059  0.61251545  0.13737182     0.10950
H2027       H  0.33648915  0.62071488  0.11924011     0.10950
H2028       H  0.33365618  0.73518106  0.12666232     0.10950
C2029       C  0.33394707  0.96360121  0.13878939    -0.15180
C2030       C  0.35226899  0.93372823  0.14602569     0.06970
C2031       C  0.33744054  0.89913088  0.14202861    -0.15180
C2032       C  0.30463739  0.89462398  0.13111116    -0.15180
C2033       C  0.28558710  0.92468000  0.12425977     0.06970
C2034       C  0.30082360  0.95913177  0.12813478    -0.15180
H2035       H  0.34468137  0.99053340  0.14156030     0.10950
H2036       H  0.35108694  0.87555700  0.14737949     0.10950
H2037       H  0.29338384  0.86781951  0.12837152     0.10950
H2038       H  0.28693009  0.98278822  0.12293279     0.10950
C2039       C  0.04293943  0.88451819  0.13870112    -0.15180
C2040       C  0.02408838  0.91466837  0.14541649     0.06970
C2041       C  0.03846031  0.94913075  0.14102511    -0.15180
C2042       C  0.07139182  0.95333717  0.13032703    -0.15180
C2043       C  0.09113129  0.92315973  0.12400868     0.06970
C2044       C  0.07631725  0.88872906  0.12819330    -0.15180
H2045       H  0.53257780  0.85769540  0.14182537     0.10950
H2046       H  0.02449879  0.97294956  0.14597064     0.10950
H2047       H  0.08219370  0.98012537  0.12733937     0.10950
H2048       H  0.09074246  0.86496346  0.12337879     0.10950
C2049       C  0.01962322  0.56320875  0.18401090    -0.15180
C2050       C  0.02995773  0.52766248  0.18047262     0.06970
C2051       C  0.07180407  0.51897330  0.17658986    -0.15180
C2052       C  0.10365126  0.54517813  0.17723001    -0.15180
C2053       C  0.09407131  0.57988540  0.18230277     0.06970
C2054       C  0.05173520  0.58915128  0.18517918    -0.15180
H2055       H  0.48747557  0.57013033  0.18723525     0.10950
H2056       H  0.08016729  0.99152009  0.17395447     0.10950
H2057       H  0.13623488  0.53759174  0.17503276     0.10950
H2058       H  0.04391238  0.61590769  0.18905728     0.10950
C2059       C  0.35955937  0.79213077  0.18579677    -0.15180
C2060       C  0.34856459  0.82851499  0.18538100     0.06970
C2061       C  0.30572030  0.83818345  0.18406760    -0.15180
C2062       C  0.27404762  0.81175568  0.18385534    -0.15180
C2063       C  0.28490132  0.77554991  0.18547609     0.06970
C2064       C  0.32777706  0.76574770  0.18613878    -0.15180
H2065       H  0.39249908  0.78427240  0.18696477     0.10950
H2066       H  0.29677315  0.86617837  0.18376771     0.10950
H2067       H  0.24099956  0.81969672  0.18350854     0.10950
H2068       H  0.33650181  0.73786077  0.18747453     0.10950
C2069       C  0.31343512  0.51696510  0.20139818    -0.15180
C2070       C  0.35580186  0.52855992  0.19954803     0.06970
C2071       C  0.36331531  0.56469778  0.19561979    -0.15180
C2072       C  0.32904828  0.58823084  0.19302278    -0.15180
C2073       C  0.28659438  0.57623825  0.19454233     0.06970
C2074       C  0.27943919  0.54049416  0.19912990    -0.15180
H2075       H  0.30656795  0.98917400  0.20419511     0.10950
H2076       H  0.39550394  0.57422940  0.19375314     0.10950
H2077       H  0.33573474  0.61571212  0.18969318     0.10950
H2078       H  0.24732358  0.53032677  0.20052920     0.10950
C2079       C  0.07089928  0.83759960  0.20168693    -0.15180
C2080       C  0.02816517  0.82647380  0.20058984     0.06970
C2081       C  0.01936239  0.79002136  0.19769858    -0.15180
C2082       C  0.05274259  0.76558683  0.19536290    -0.15180
C2083       C  0.09554973  0.77701843  0.19619428     0.06970
C2084       C  0.10405897  0.81316972  0.19975719    -0.15180
H2085       H  0.07864824  0.86559272  0.20369337     0.10950
H2086       H  0.48676758  0.78082958  0.19645744     0.10950
H2087       H  0.04511190  0.73782704  0.19281671     0.10950
H2088       H  0.13654673  0.82288168  0.20056676     0.10950
C2089       C  0.41575208  0.81637502  0.35739330    -0.15180
C2090       C  0.45639887  0.80151918  0.35920649     0.06970
C2091       C  0.46806526  0.78752414  0.37378257    -0.15180
C2092       C  0.44032433  0.79000076  0.38641359    -0.15180
C2093       C  0.40119862  0.80738035  0.38468312     0.06970
C2094       C  0.38879300  0.81973049  0.37003095    -0.15180
H2095       H  0.40563896  0.82753646  0.34640478     0.10950
H2096       H  0.99925385  0.77613066  0.37558158     0.10950
H2097       H  0.45020595  0.78000287  0.39764448     0.10950
H2098       H  0.35832835  0.83260406  0.36841505     0.10950
C2099       C  0.20558626  0.85767356  0.35934591    -0.15180
C2100       C  0.17861202  0.82779388  0.35734754     0.06970
C2101       C  0.17723918  0.80093783  0.36871836    -0.15180
C2102       C  0.20290724  0.80351551  0.38180902    -0.15180
C2103       C  0.22977504  0.83333241  0.38390353     0.06970
C2104       C  0.23079485  0.86061757  0.37268584    -0.15180
H2105       H  0.20656332  0.87890262  0.35076505     0.10950
H2106       H  0.15650143  0.77776004  0.36741044     0.10950
H2107       H  0.20201408  0.78205840  0.39028771     0.10950
H2108       H  0.25197541  0.88349061  0.37401438     0.10950
C2109       C  0.13724794  0.70945257  0.27246734    -0.15180
C2110       C  0.12811806  0.74658169  0.27220718     0.06970
C2111       C  0.12092639  0.76334042  0.25802216    -0.15180
C2112       C  0.12187009  0.74322056  0.24439350    -0.15180
C2113       C  0.13079289  0.70592637  0.24458566     0.06970
C2114       C  0.13831011  0.68928958  0.25882146    -0.15180
H2115       H  0.14238056  0.69573445  0.28338642     0.10950
H2116       H  0.11275390  0.79147500  0.25751639     0.10950
H2117       H  0.11621582  0.75724333  0.23358845     0.10950
H2118       H  0.14588107  0.66103538  0.25938492     0.10950
C2119       C  0.04381012  0.90193819  0.25316210    -0.15180
C2120       C  0.52608222  0.88447270  0.24030170     0.06970
C2121       C  0.52088528  0.84669961  0.24108792    -0.15180
C2122       C  0.52927841  0.82741401  0.25481336    -0.15180
C2123       C  0.54235143  0.84566489  0.26819078     0.06970
C2124       C  0.05187001  0.88280188  0.26688604    -0.15180
H2125       H  0.04698674  0.93091156  0.25321295     0.10950
H2126       H  0.50594157  0.83245294  0.23160913     0.10950
H2127       H  0.52132370  0.79912916  0.25537422     0.10950
H2128       H  0.06215326  0.89781886  0.27699379     0.10950
C2129       C  0.41634232  0.52240858  0.37843937    -0.15180
C2130       C  0.39914867  0.55385436  0.37200797     0.06970
C2131       C  0.41895395  0.58691145  0.37544559    -0.15180
C2132       C  0.45499641  0.58864763  0.38499138    -0.15180
C2133       C  0.47324199  0.55726161  0.39095694     0.06970
C2134       C  0.45357968  0.52403202  0.38757250    -0.15180
H2135       H  0.40174764  0.49657030  0.37606314     0.10950
H2136       H  0.40643377  0.61163545  0.37073256     0.10950
H2137       H  0.46913085  0.61462312  0.38748664     0.10950
H2138       H  0.46657613  0.49941895  0.39220778     0.10950
C2139       C  0.20479959  0.56185790  0.37568313    -0.15180
C2140       C  0.22471029  0.59339214  0.37036930     0.06970
C2141       C  0.20832103  0.62676048  0.37489281    -0.15180
C2142       C  0.17226915  0.62831928  0.38447219    -0.15180
C2143       C  0.15285368  0.59653115  0.38988415     0.06970
C2144       C  0.16971938  0.56340351  0.38542881    -0.15180
H2145       H  0.21658185  0.53576413  0.37235239     0.10950
H2146       H  0.22277996  0.65144693  0.37078439     0.10950
H2147       H  0.16007283  0.65421032  0.38785887     0.10950
H2148       H  0.15550422  0.53848199  0.38941111     0.10950
C2149       C  0.23567233  0.63133278  0.27150229    -0.15180
C2150       C  0.24888796  0.59510533  0.27094142     0.06970
C2151       C  0.26420200  0.58172774  0.25694669    -0.15180
C2152       C  0.26601406  0.60390408  0.24386669    -0.15180
C2153       C  0.25209987  0.63996782  0.24438280     0.06970
C2154       C  0.23783042  0.65356562  0.25846377    -0.15180
H2155       H  0.22450908  0.64291014  0.28222669     0.10950
H2156       H  0.27576068  0.55451440  0.25620595     0.10950
H2157       H  0.27697918  0.59231749  0.23311394     0.10950
H2158       H  0.22661796  0.68086511  0.25924053     0.10950
C2159       C  0.46767942  0.69287801  0.30934507    -0.15180
C2160       C  0.45554311  0.72776329  0.31335822     0.06970
C2161       C  0.41795604  0.73283396  0.32173733    -0.15180
C2162       C  0.39261033  0.70314398  0.32584986    -0.15180
C2163       C  0.40465755  0.66831145  0.32152706     0.06970
C2164       C  0.44253277  0.66355074  0.31333557    -0.15180
H2165       H  0.99708939  0.68828634  0.30319638     0.10950
H2166       H  0.40888597  0.75945126  0.32540571     0.10950
H2167       H  0.36298649  0.70747695  0.33187552     0.10950
H2168       H  0.45224467  0.63705186  0.30970079     0.10950
C2169       C  0.21571902  0.94159642  0.31675434    -0.15180
C2170       C  0.21207093  0.96856962  0.32797303     0.06970
C2171       C  0.17296325  0.97397020  0.33521955    -0.15180
C2172       C  0.13835275  0.95149651  0.33168862    -0.15180
C2173       C  0.14216848  0.92427445  0.32048792     0.06970
C2174       C  0.18107802  0.91987466  0.31293867    -0.15180
H2175       H  0.24528244  0.93814461  0.31055194     0.10950
H2176       H  0.16905396  0.99585723  0.34331088     0.10950
H2177       H  0.10888479  0.95472469  0.33795038     0.10950
H2178       H  0.18544901  0.89835185  0.30469159     0.10950
C2179       C  0.24089250  0.70464975  0.32773993    -0.15180
C2180       C  0.22680209  0.66927255  0.32589047     0.06970
C2181       C  0.18321742  0.66114742  0.32718049    -0.15180
C2182       C  0.15364887  0.68879476  0.32868158    -0.15180
C2183       C  0.16771518  0.72458352  0.32925240     0.06970
C2184       C  0.21163669  0.73200123  0.32969108    -0.15180
H2185       H  0.27448382  0.71123309  0.32728724     0.10950
H2186       H  0.17195924  0.63371873  0.32606866     0.10950
H2187       H  0.12000805  0.68245827  0.32809810     0.10950
H2188       H  0.22327163  0.75942239  0.33023136     0.10950
C2189       C  0.42635725  0.96651710  0.34075930    -0.15180
C2190       C  0.39711160  0.96292761  0.32841080     0.06970
C2191       C  0.40259619  0.93558515  0.31756227    -0.15180
C2192       C  0.43758129  0.91306219  0.31872288    -0.15180
C2193       C  0.46706495  0.91693501  0.33095382     0.06970
C2194       C  0.46076400  0.94325077  0.34218294    -0.15180
H2195       H  0.42288886  0.98765326  0.34919518     0.10950
H2196       H  0.38071126  0.93239697  0.30792612     0.10950
H2197       H  0.44171958  0.89254122  0.30999435     0.10950
H2198       H  0.98313245  0.94661492  0.35165901     0.10950
C2199       C  0.36586156  0.53660623  0.25497219    -0.15180
C2200       C  0.36563934  0.52138654  0.26986418     0.06970
C2201       C  0.36939010  0.98355055  0.27098230    -0.15180
C2202       C  0.37402607  0.96188013  0.25789283    -0.15180
C2203       C  0.37580206  0.97700162  0.24310463     0.06970
C2204       C  0.37177748  0.51471226  0.24179989    -0.15180
H2205       H  0.36252868  0.56530401  0.25353077     0.10950
H2206       H  0.36904464  0.97022399  0.28213217     0.10950
H2207       H  0.37930753  0.93340439  0.25944944     0.10950
H2208       H  0.37541118  0.52753760  0.23065575     0.10950
O2209       O  0.85503413  0.02391711  0.29646315    -0.81970
O2210       O  0.86152748  0.07688584  0.34999446    -0.81990
O2211       O  0.87381710  0.11699111  0.31090489    -0.82000
O2212       O  0.86691127  0.51922449  0.33269560    -0.81940
O2213       O  0.84617106  0.13588598  0.33304164    -0.82070
O2214       O  0.82921496  0.48245893  0.31889406    -0.81990
O2215       O  0.83372875  0.02905241  0.36100775    -0.81970
O2216       O  0.84398445  0.07465727  0.28496144    -0.82010
C2217       C  0.85694956  0.04212764  0.28444696     1.07720
C2218       C  0.86284307  0.05312649  0.36085635     1.07600
C2219       C  0.87455834  0.13802888  0.32239972     1.07740
C2220       C  0.86289517  0.48923499  0.32647286     1.07620
O2221       O  0.74514145  0.51508835  0.31561652    -0.81970
O2222       O  0.75378639  0.11134264  0.32938109    -0.82050
O2223       O  0.75963960  0.09493754  0.29725434    -0.81980
O2224       O  0.76160421  0.06268835  0.35040400    -0.81960
O2225       O  0.78949345  0.11390617  0.35790779    -0.82020
O2226       O  0.77040865  0.04405693  0.28674335    -0.81980
O2227       O  0.77484619  0.49885165  0.33774934    -0.81940
O2228       O  0.78999120  0.14608279  0.31457020    -0.82010
Co2229     Co  0.79947935  0.01942916  0.30553835     1.51530
Co2230     Co  0.80741801  0.09302111  0.33837781     1.51690
Co2231     Co  0.81775779  0.10532133  0.30297120     1.51570
Co2232     Co  0.81510913  0.04212214  0.34021362     1.51470
O2233       O  0.81236965  0.06427534  0.31873351    -1.43910
C2234       C  0.74444287  0.49671253  0.32780390     1.07650
C2235       C  0.75769137  0.14097303  0.32290524     1.07740
C2236       C  0.75634699  0.07582425  0.28572660     1.07670
C2237       C  0.76054035  0.09011100  0.35941531     1.07650
O2238       O  0.01946320  0.38396004  0.31876536    -0.81970
O2239       O  0.62010991  0.29893192  0.28976309    -0.81990
O2240       O  0.59957604  0.38343381  0.33372900    -0.82000
O2241       O  0.54342256  0.29748308  0.28805414    -0.81940
O2242       O  0.60879027  0.37437149  0.30805457    -0.82070
O2243       O  0.02408013  0.35118291  0.29397808    -0.81990
O2244       O  0.59566096  0.24352266  0.29598601    -0.81970
O2245       O  0.51635096  0.37682408  0.34305025    -0.82010
C2246       C  0.00431099  0.39358066  0.33123135     1.07720
C2247       C  0.61613699  0.26400900  0.28683024     1.07600
C2248       C  0.61191524  0.39414026  0.32024731     1.07740
C2249       C  0.03731118  0.33013220  0.28410037     1.07620
O2250       O  0.97736420  0.28791854  0.30660242    -0.81970
O2251       O  0.65673454  0.34082667  0.33143664    -0.82050
O2252       O  0.52740119  0.30357346  0.34991522    -0.81980
O2253       O  0.59977329  0.25353195  0.32651821    -0.81960
O2254       O  0.65484635  0.27898663  0.31688207    -0.82020
O2255       O  0.97598106  0.32196172  0.33412758    -0.81980
O2256       O  0.52445922  0.24910152  0.31462451    -0.81940
O2257       O  0.61378758  0.31047613  0.34599092    -0.82010
Co2258     Co  0.00305703  0.33537670  0.31356048     1.51530
Co2259     Co  0.62739812  0.32480437  0.31172664     1.51690
Co2260     Co  0.56519349  0.34149653  0.34208512     1.51570
Co2261     Co  0.57238587  0.27792074  0.30864167     1.51470
O2262       O  0.56246277  0.31963649  0.32041476    -1.43910
C2263       C  0.98690414  0.25674302  0.31142630     1.07650
C2264       C  0.64913924  0.32560199  0.34421066     1.07740
C2265       C  0.98819994  0.30734482  0.34683358     1.07670
C2266       C  0.63934559  0.25393560  0.32475564     1.07650
O2267       O  0.01265431  0.42910102  0.21984306    -0.81970
O2268       O  0.97352152  0.38051335  0.16030480    -0.81990
O2269       O  0.95851840  0.35145928  0.20671151    -0.82000
O2270       O  0.96170555  0.49973681  0.17945907    -0.81940
O2271       O  0.00136853  0.38007516  0.19043489    -0.82070
O2272       O  0.01080989  0.47479471  0.19347743    -0.81990
O2273       O  0.98022892  0.43844947  0.16536383    -0.81970
O2274       O  0.95951136  0.39866844  0.23035634    -0.82010
C2275       C  0.49891732  0.40506173  0.22929219     1.07720
C2276       C  0.49070608  0.41070444  0.15735211     1.07600
C2277       C  0.99446911  0.35422000  0.19959962     1.07740
C2278       C  0.49976992  0.99902061  0.18415518     1.07620
O2279       O  0.92743428  0.00530927  0.20465572    -0.81970
O2280       O  0.91763645  0.35412753  0.18253608    -0.82050
O2281       O  0.88078214  0.43153518  0.22266517    -0.81980
O2282       O  0.90368266  0.46915859  0.15980095    -0.81960
O2283       O  0.89781912  0.41211287  0.16638366    -0.82020
O2284       O  0.93720150  0.46322908  0.22983234    -0.81980
O2285       O  0.88140900  0.97388743  0.19039270    -0.81940
O2286       O  0.87307332  0.38086415  0.19793896    -0.82010
Co2287     Co  0.97197690  0.46622767  0.21096581     1.51530
Co2288     Co  0.95232715  0.39890229  0.17934578     1.51690
Co2289     Co  0.91767178  0.39242771  0.21337507     1.51570
Co2290     Co  0.92821771  0.45373661  0.17880876     1.51470
O2291       O  0.94257230  0.42804689  0.19837611    -1.43910
C2292       C  0.88988792  0.00107345  0.19862904     1.07650
C2293       C  0.88096249  0.35606595  0.18845347     1.07740
C2294       C  0.89796626  0.45651610  0.23086647     1.07670
C2295       C  0.88639953  0.43871141  0.15774307     1.07650
O2296       O  0.72913743  0.19077633  0.22864488    -0.81970
O2297       O  0.71710087  0.13603959  0.15564788    -0.81990
O2298       O  0.71366631  0.09346200  0.19755852    -0.82000
O2299       O  0.71874797  0.24713339  0.17987541    -0.81940
O2300       O  0.75331481  0.12963019  0.18437587    -0.82070
O2301       O  0.75388276  0.23102036  0.20113038    -0.81990
O2302       O  0.73489660  0.18929212  0.16481412    -0.81970
O2303       O  0.73748888  0.13848714  0.21834491    -0.82010
C2304       C  0.74176339  0.15844121  0.22964197     1.07720
C2305       C  0.73965718  0.16440159  0.15466608     1.07600
C2306       C  0.74974342  0.10069992  0.19185837     1.07740
C2307       C  0.75156977  0.24904642  0.18867018     1.07620
O2308       O  0.66752460  0.25779151  0.19974486    -0.81970
O2309       O  0.66169766  0.10673390  0.17809210    -0.82050
O2310       O  0.65256931  0.15560152  0.22836141    -0.81980
O2311       O  0.66060894  0.22096542  0.15694432    -0.81960
O2312       O  0.64393283  0.16656189  0.16506314    -0.82020
O2313       O  0.64361272  0.20794427  0.21846197    -0.81980
O2314       O  0.62725229  0.22322076  0.18600636    -0.81940
O2315       O  0.62699462  0.12054060  0.19952219    -0.82010
Co2316     Co  0.69968754  0.21858470  0.21089209     1.51530
Co2317     Co  0.69937863  0.15058572  0.17588646     1.51690
Co2318     Co  0.68150284  0.13048471  0.20986560     1.51570
Co2319     Co  0.68060601  0.20361382  0.17664189     1.51470
O2320       O  0.69103140  0.17556106  0.19624574    -1.43910
C2321       C  0.63146864  0.25168227  0.19373312     1.07650
C2322       C  0.62866392  0.10444995  0.18659369     1.07740
C2323       C  0.64025147  0.18787071  0.22971714     1.07670
C2324       C  0.63797333  0.19267891  0.15556528     1.07650
O2325       O  0.97161777  0.20112755  0.11240031    -0.81970
O2326       O  0.98323415  0.19147964  0.04741400    -0.81990
O2327       O  0.96906312  0.09910768  0.08356744    -0.82000
O2328       O  0.96508757  0.24423220  0.06389479    -0.81940
O2329       O  0.00249043  0.13198044  0.06639588    -0.82070
O2330       O  0.99508167  0.23579612  0.08643444    -0.81990
O2331       O  0.92495094  0.21793323  0.03919190    -0.81970
O2332       O  0.99268572  0.14799973  0.10492024    -0.82010
C2333       C  0.99860543  0.17630760  0.11265145     1.07720
C2334       C  0.96357902  0.21051646  0.03691095     1.07600
C2335       C  0.00016991  0.10452516  0.07469680     1.07740
C2336       C  0.99593155  0.24965071  0.07322878     1.07620
O2337       O  0.90753704  0.25576376  0.08121718    -0.81970
O2338       O  0.91136033  0.10771670  0.06584871    -0.82050
O2339       O  0.90528151  0.15830279  0.11281517    -0.81980
O2340       O  0.89265869  0.15823170  0.04809433    -0.81960
O2341       O  0.95049926  0.13020924  0.04051108    -0.82020
O2342       O  0.88364973  0.20998812  0.10379820    -0.81980
O2343       O  0.87380370  0.22041597  0.06500992    -0.81940
O2344       O  0.88128751  0.12002460  0.08784945    -0.82010
Co2345     Co  0.93964918  0.22227225  0.09478422     1.51530
Co2346     Co  0.94896191  0.15254713  0.06003951     1.51690
Co2347     Co  0.93687269  0.13451977  0.09599564     1.51570
Co2348     Co  0.92725802  0.19882835  0.05938241     1.51470
O2349       O  0.93840303  0.17731707  0.08070870    -1.43910
C2350       C  0.87625964  0.24906570  0.07248214     1.07650
C2351       C  0.88024537  0.10410463  0.07510707     1.07740
C2352       C  0.87765386  0.18249846  0.11205369     1.07670
C2353       C  0.91181520  0.13766041  0.03814094     1.07650
O2354       O  0.65453228  0.40180337  0.11308931    -0.81970
O2355       O  0.64179308  0.41051208  0.04835486    -0.81990
O2356       O  0.65588985  0.50362910  0.08392794    -0.82000
O2357       O  0.66296956  0.35829224  0.06471583    -0.81940
O2358       O  0.62241482  0.46995916  0.06697636    -0.82070
O2359       O  0.63231963  0.36700464  0.08694051    -0.81990
O2360       O  0.70017577  0.38516131  0.03981550    -0.81970
O2361       O  0.63377896  0.45522537  0.10572931    -0.82010
C2362       C  0.62801567  0.42698231  0.11355010     1.07720
C2363       C  0.66116746  0.39189282  0.03775999     1.07600
C2364       C  0.62457232  0.49761621  0.07512135     1.07740
C2365       C  0.63192101  0.35286155  0.07380921     1.07620
O2366       O  0.72089098  0.34842423  0.08234031    -0.81970
O2367       O  0.71303162  0.49522459  0.06604283    -0.82050
O2368       O  0.72192576  0.44629972  0.11358916    -0.81980
O2369       O  0.73202574  0.44541406  0.04823055    -0.81960
O2370       O  0.67310000  0.47201254  0.04080618    -0.82020
O2371       O  0.74295804  0.39372972  0.10539748    -0.81980
O2372       O  0.75290956  0.38367941  0.06559866    -0.81940
O2373       O  0.74410994  0.48460452  0.08821639    -0.82010
Co2374     Co  0.68745188  0.38119547  0.09568874     1.51530
Co2375     Co  0.67608023  0.45003181  0.06055932     1.51690
Co2376     Co  0.68918247  0.46907689  0.09655249     1.51570
Co2377     Co  0.69890586  0.40447617  0.05998347     1.51470
O2378       O  0.68834591  0.42598663  0.08140040    -1.43910
C2379       C  0.75133121  0.35523312  0.07329874     1.07650
C2380       C  0.74412703  0.50000911  0.07531262     1.07740
C2381       C  0.74860471  0.42122683  0.11369702     1.07670
C2382       C  0.71178095  0.46531816  0.03819412     1.07650
O2383       O  0.57847522  0.25858940  0.97867364    -0.81970
O2384       O  0.53810046  0.33815590  0.90695602    -0.81990
O2385       O  0.49421947  0.34829655  0.95130086    -0.82000
O2386       O  0.49938203  0.24962194  0.93801010    -0.81940
O2387       O  0.53086838  0.37809868  0.93296392    -0.82070
O2388       O  0.54545150  0.23065668  0.95412250    -0.81990
O2389       O  0.49971771  0.29294013  0.91527045    -0.81970
O2390       O  0.51815661  0.28440764  0.97079547    -0.82010
C2391       C  0.53920535  0.26497830  0.98095201     1.07720
C2392       C  0.50399376  0.31960034  0.90654861     1.07600
C2393       C  0.99750793  0.37332594  0.94130518     1.07740
C2394       C  0.50852441  0.22828252  0.94848157     1.07620
O2395       O  0.62790538  0.26026286  0.95091113    -0.81970
O2396       O  0.62342160  0.35876316  0.94009669    -0.82050
O2397       O  0.54357998  0.34699141  0.97942501    -0.81980
O2398       O  0.58671016  0.27539560  0.90636340    -0.81960
O2399       O  0.62453589  0.31867293  0.91661597    -0.82020
O2400       O  0.60381747  0.32196736  0.97119285    -0.81980
O2401       O  0.59236344  0.23184706  0.93183047    -0.81940
O2402       O  0.57642678  0.37766806  0.95555313    -0.82010
Co2403     Co  0.57527012  0.27939067  0.95899229     1.51530
Co2404     Co  0.57860171  0.34623200  0.92518624     1.51690
Co2405     Co  0.54669532  0.32822002  0.95939318     1.51570
Co2406     Co  0.54518718  0.26455966  0.92398708     1.51470
O2407       O  0.56104167  0.30473159  0.93881341    -1.43910
C2408       C  0.62515160  0.23585123  0.94065530     1.07650
C2409       C  0.61342503  0.38059483  0.95015798     1.07740
C2410       C  0.58290771  0.34032834  0.98164057     1.07670
C2411       C  0.62039446  0.29453413  0.90667121     1.07650
O2412       O  0.79869209  0.09698870  0.97898614    -0.81970
O2413       O  0.84815345  0.01588540  0.90959113    -0.81990
O2414       O  0.87256224  0.50554029  0.95153960    -0.82000
O2415       O  0.87773733  0.10515441  0.93623592    -0.81940
O2416       O  0.83418096  0.47542230  0.93427641    -0.82070
O2417       O  0.83931702  0.12270840  0.95520683    -0.81990
O2418       O  0.86168566  0.07408002  0.90937083    -0.81970
O2419       O  0.85607379  0.06790965  0.97118505    -0.82010
C2420       C  0.83695041  0.08790853  0.98146803     1.07720
C2421       C  0.86902711  0.04267082  0.90478018     1.07600
C2422       C  0.86806824  0.47966721  0.94221995     1.07740
C2423       C  0.87460744  0.12348650  0.94818674     1.07620
O2424       O  0.74888216  0.10211449  0.95200202    -0.81970
O2425       O  0.74460253  0.50336049  0.93477300    -0.82050
O2426       O  0.82241307  0.00797110  0.97837503    -0.81980
O2427       O  0.77456751  0.09663913  0.91057033    -0.81960
O2428       O  0.76057835  0.03859412  0.90877434    -0.82020
O2429       O  0.76517544  0.03780198  0.97093657    -0.81980
O2430       O  0.78825532  0.13399336  0.93579692    -0.81940
O2431       O  0.78266682  0.48483764  0.95385834    -0.82010
Co2432     Co  0.80015813  0.07766801  0.95902775     1.51530
Co2433     Co  0.79734665  0.01167057  0.92319237     1.51690
Co2434     Co  0.82126851  0.02924432  0.95867336     1.51570
Co2435     Co  0.82512555  0.09889082  0.92427480     1.51470
O2436       O  0.81093866  0.05446214  0.93785685    -1.43910
C2437       C  0.75384347  0.12889123  0.94318804     1.07650
C2438       C  0.74735424  0.48485060  0.94675534     1.07740
C2439       C  0.78432536  0.01700364  0.98103943     1.07670
C2440       C  0.75335807  0.07077037  0.90511616     1.07650
O2441       O  0.61227925  0.07059439  0.41041996    -0.81970
O2442       O  0.59938302  0.12250087  0.46808350    -0.81990
O2443       O  0.62345857  0.12808223  0.43060470    -0.82000
O2444       O  0.63265235  0.03093695  0.44407924    -0.81940
O2445       O  0.58218775  0.16144093  0.44444292    -0.82070
O2446       O  0.59478275  0.00983276  0.42466410    -0.81990
O2447       O  0.61325782  0.06538602  0.47254635    -0.81970
O2448       O  0.59046345  0.12244639  0.40141771    -0.82010
C2449       C  0.61661090  0.09674756  0.40076879     1.07720
C2450       C  0.61385393  0.09824851  0.47652186     1.07600
C2451       C  0.61842252  0.15587887  0.43862797     1.07740
C2452       C  0.62860263  0.00979280  0.43280087     1.07620
O2453       O  0.50630824  0.03305153  0.43133160    -0.81970
O2454       O  0.49741638  0.12673494  0.44325164    -0.82050
O2455       O  0.51643287  0.08733037  0.41017026    -0.81980
O2456       O  0.53005949  0.03931036  0.46808139    -0.81960
O2457       O  0.51789450  0.09616975  0.47274615    -0.82020
O2458       O  0.53809649  0.03483257  0.40224088    -0.81980
O2459       O  0.54608770  0.99857022  0.44538611    -0.81940
O2460       O  0.53383037  0.14878147  0.42375620    -0.82010
Co2461     Co  0.55791420  0.05349424  0.42190469     1.51530
Co2462     Co  0.54870594  0.12301662  0.45574594     1.51690
Co2463     Co  0.57160680  0.10567592  0.42144986     1.51570
Co2464     Co  0.58113322  0.03715768  0.45618317     1.51470
O2465       O  0.56562391  0.08003183  0.44218659    -1.43910
C2466       C  0.51048914  0.00467635  0.43898548     1.07650
C2467       C  0.50058185  0.14831844  0.43208316     1.07740
C2468       C  0.51131378  0.05992538  0.40122170     1.07670
C2469       C  0.51828268  0.06352089  0.47693425     1.07650
O2470       O  0.86373656  0.28808477  0.40684110    -0.81970
O2471       O  0.80499685  0.37703787  0.47109688    -0.81990
O2472       O  0.87701767  0.38184646  0.42501833    -0.82000
O2473       O  0.87991445  0.28288924  0.44612626    -0.81940
O2474       O  0.84294848  0.39790987  0.44570676    -0.82070
O2475       O  0.84063102  0.24907435  0.43101439    -0.81990
O2476       O  0.86249393  0.34798473  0.46382864    -0.81970
O2477       O  0.85600856  0.34402686  0.39924332    -0.82010
C2478       C  0.87282624  0.31353644  0.39787169     1.07720
C2479       C  0.84349118  0.36905986  0.47375269     1.07600
C2480       C  0.87531649  0.40017840  0.43707532     1.07740
C2481       C  0.87540746  0.25535883  0.43779672     1.07620
O2482       O  0.75384509  0.27469494  0.42710816    -0.81970
O2483       O  0.75246132  0.37707843  0.44445811    -0.82050
O2484       O  0.76952014  0.36162516  0.40384244    -0.81980
O2485       O  0.82973050  0.28889608  0.47267645    -0.81960
O2486       O  0.77123025  0.31593612  0.46474557    -0.82020
O2487       O  0.77718610  0.30370366  0.40008774    -0.81980
O2488       O  0.78708896  0.26284205  0.44863538    -0.81940
O2489       O  0.78884955  0.40664224  0.42670592    -0.82010
Co2490     Co  0.80886964  0.28266263  0.41751795     1.51530
Co2491     Co  0.80514966  0.35422907  0.45156997     1.51690
Co2492     Co  0.82294415  0.37026047  0.41518673     1.51570
Co2493     Co  0.82735841  0.30725433  0.45242854     1.51470
O2494       O  0.81552819  0.32843257  0.43090340    -1.43910
C2495       C  0.75468693  0.25914047  0.43989573     1.07650
C2496       C  0.75560808  0.40238013  0.43476017     1.07740
C2497       C  0.76012245  0.33314824  0.39678869     1.07670
C2498       C  0.79127498  0.29673957  0.47518097     1.07650
O2499       O  0.89894181  0.44046529  0.54158769    -0.81970
O2500       O  0.89169906  0.43198210  0.60199473    -0.81990
O2501       O  0.92092308  0.38464946  0.55675226    -0.82000
O2502       O  0.91855325  0.02965350  0.58092133    -0.81940
O2503       O  0.88108640  0.40036035  0.57554901    -0.82070
O2504       O  0.87982827  0.00066862  0.56324494    -0.81990
O2505       O  0.91377256  0.48766873  0.60556251    -0.81970
O2506       O  0.95770453  0.41478651  0.53302125    -0.82010
C2507       C  0.91875013  0.42207655  0.53083920     1.07720
C2508       C  0.88841872  0.46206191  0.60845451     1.07600
C2509       C  0.88528396  0.38265873  0.56348887     1.07740
C2510       C  0.88450349  0.02579035  0.57298080     1.07620
O2511       O  0.96763456  0.02608275  0.56033604    -0.81970
O2512       O  0.97236574  0.37571229  0.57697364    -0.82050
O2513       O  0.98737747  0.47538771  0.54228554    -0.81980
O2514       O  0.00180619  0.46744897  0.60207225    -0.81960
O2515       O  0.98028952  0.41122998  0.60385326    -0.82020
O2516       O  0.92735301  0.50313768  0.53583461    -0.81980
O2517       O  0.01015418  0.00483407  0.57724902    -0.81940
O2518       O  0.00886530  0.40855696  0.55995993    -0.82010
Co2519     Co  0.93157521  0.97981711  0.55492857     1.51530
Co2520     Co  0.93195978  0.40811960  0.58837848     1.51690
Co2521     Co  0.95624927  0.43199163  0.55344376     1.51570
Co2522     Co  0.96038225  0.99434113  0.59007469     1.51470
O2523       O  0.94530106  0.45292053  0.57508392    -1.43910
C2524       C  0.00450256  0.02570350  0.56626966     1.07650
C2525       C  0.50552825  0.38156735  0.56886176     1.07740
C2526       C  0.96650290  0.49777239  0.53327779     1.07670
C2527       C  0.50564180  0.43641812  0.60757571     1.07650
O2528       O  0.73849134  0.21921388  0.54113460    -0.81970
O2529       O  0.75944935  0.21809026  0.59637965    -0.81990
O2530       O  0.71325942  0.27592278  0.55640534    -0.82000
O2531       O  0.72439684  0.13136424  0.58194538    -0.81940
O2532       O  0.75961201  0.25806451  0.57260928    -0.82070
O2533       O  0.76188332  0.15815449  0.56299258    -0.81990
O2534       O  0.71974725  0.17579924  0.60651022    -0.81970
O2535       O  0.67789810  0.24418407  0.53294045    -0.82010
C2536       C  0.71712096  0.23773256  0.53068920     1.07720
C2537       C  0.75429407  0.19377856  0.60623515     1.07600
C2538       C  0.75041928  0.27868190  0.56189685     1.07740
C2539       C  0.75788225  0.13439888  0.57352331     1.07620
O2540       O  0.67833380  0.12941053  0.55977593    -0.81970
O2541       O  0.66748259  0.27868754  0.57900292    -0.82050
O2542       O  0.65305290  0.18204915  0.54215090    -0.81980
O2543       O  0.63364119  0.19655281  0.59648059    -0.81960
O2544       O  0.67424195  0.23905359  0.60580375    -0.82020
O2545       O  0.71330618  0.15478118  0.53509815    -0.81980
O2546       O  0.63203157  0.15191878  0.57455376    -0.81940
O2547       O  0.63026949  0.24808297  0.56093309    -0.82010
Co2548     Co  0.70986319  0.17753176  0.55420480     1.51530
Co2549     Co  0.71439382  0.24637832  0.58739424     1.51690
Co2550     Co  0.68210007  0.22666876  0.55309123     1.51570
Co2551     Co  0.67802029  0.16582064  0.58879614     1.51470
O2552       O  0.69641673  0.20454225  0.57389935    -1.43910
C2553       C  0.64081161  0.12880497  0.56486829     1.07650
C2554       C  0.63415093  0.27395191  0.57050119     1.07740
C2555       C  0.67378694  0.16028990  0.53288015     1.07670
C2556       C  0.64043067  0.22017859  0.60646225     1.07650
O2557       O  0.89844828  0.21976152  0.65644773    -0.81970
O2558       O  0.90044227  0.21354992  0.71796660    -0.81990
O2559       O  0.92110884  0.12156759  0.68118345    -0.82000
O2560       O  0.92023055  0.26840372  0.70235285    -0.81940
O2561       O  0.88338962  0.15177117  0.69832278    -0.82070
O2562       O  0.88247560  0.25167946  0.68282020    -0.81990
O2563       O  0.95794324  0.24195525  0.72673197    -0.81970
O2564       O  0.91073669  0.16169003  0.65618473    -0.82010
C2565       C  0.89054840  0.18873674  0.65146108     1.07720
C2566       C  0.91913930  0.23327738  0.72861110     1.07600
C2567       C  0.88739695  0.12616507  0.68894642     1.07740
C2568       C  0.88537394  0.26961506  0.69494325     1.07620
O2569       O  0.97251100  0.27832625  0.68320038    -0.81970
O2570       O  0.97213892  0.12929511  0.70144507    -0.82050
O2571       O  0.99898815  0.18324766  0.65716360    -0.81980
O2572       O  0.99074856  0.18259504  0.71854810    -0.81960
O2573       O  0.93223245  0.15342164  0.72558413    -0.82020
O2574       O  0.98646902  0.24124010  0.65754831    -0.81980
O2575       O  0.00971519  0.24665560  0.70010561    -0.81940
O2576       O  0.01186278  0.14795171  0.68294047    -0.82010
Co2577     Co  0.93539472  0.24423285  0.67128144     1.51530
Co2578     Co  0.93505196  0.17462122  0.70589750     1.51690
Co2579     Co  0.96015640  0.15695387  0.67070227     1.51570
Co2580     Co  0.95735215  0.22285876  0.70657205     1.51470
O2581       O  0.94716735  0.19984083  0.68517832    -1.43910
C2582       C  0.50630559  0.27283385  0.69089711     1.07650
C2583       C  0.50767254  0.12862956  0.69460043     1.07740
C2584       C  0.50756140  0.21473673  0.65283351     1.07670
C2585       C  0.47070511  0.16176955  0.72842382     1.07650
O2586       O  0.58482370  0.09428498  0.85997972    -0.81970
O2587       O  0.54798716  0.02348735  0.78612128    -0.81990
O2588       O  0.62420856  0.51242848  0.82638697    -0.82000
O2589       O  0.62696712  0.11113924  0.81646481    -0.81940
O2590       O  0.57842977  0.49275086  0.81035312    -0.82070
O2591       O  0.58963849  0.13877927  0.83497216    -0.81990
O2592       O  0.60659654  0.05039385  0.79545853    -0.81970
O2593       O  0.62365286  0.05231541  0.84978796    -0.82010
C2594       C  0.61917127  0.07650500  0.85961543     1.07720
C2595       C  0.58733934  0.03150495  0.78460747     1.07600
C2596       C  0.61497416  0.49024861  0.81627391     1.07740
C2597       C  0.62322089  0.13515284  0.82675526     1.07620
O2598       O  0.49780162  0.11790957  0.82777597    -0.81970
O2599       O  0.49619750  0.52070634  0.81359059    -0.82050
O2600       O  0.53732855  0.03059986  0.85898952    -0.81980
O2601       O  0.58057858  0.11345104  0.78802489    -0.81960
O2602       O  0.52033776  0.08520225  0.79463410    -0.82020
O2603       O  0.49819145  0.07420879  0.85017880    -0.81980
O2604       O  0.54381095  0.13930927  0.81223195    -0.81940
O2605       O  0.53152493  0.49155835  0.83251195    -0.82010
Co2606     Co  0.54331526  0.10423374  0.84212615     1.51530
Co2607     Co  0.54884108  0.04183631  0.80628526     1.51690
Co2608     Co  0.57848554  0.02387544  0.84089303     1.51570
Co2609     Co  0.57560820  0.09157583  0.80744046     1.51470
O2610       O  0.56074862  0.06508990  0.82722579    -1.43910
C2611       C  0.50673747  0.14043975  0.81774038     1.07650
C2612       C  0.49877117  0.49610700  0.82378942     1.07740
C2613       C  0.50293348  0.04831923  0.85922803     1.07670
C2614       C  0.54178800  0.10588135  0.78502678     1.07650
O2615       O  0.63423161  0.45782491  0.66398276    -0.81970
O2616       O  0.65147814  0.46502105  0.71842130    -0.81990
O2617       O  0.67019712  0.37453017  0.67984000    -0.82000
O2618       O  0.67755334  0.02207949  0.70249935    -0.81940
O2619       O  0.63225565  0.40255722  0.69814125    -0.82070
O2620       O  0.63234751  0.00077022  0.68661061    -0.81990
O2621       O  0.70942975  0.49396679  0.72714542    -0.81970
O2622       O  0.67529095  0.41695916  0.65417667    -0.82010
C2623       C  0.64071730  0.43451637  0.65388320     1.07720
C2624       C  0.67047507  0.48501096  0.72896040     1.07600
C2625       C  0.63652175  0.37819532  0.68801614     1.07740
C2626       C  0.64076403  0.02333618  0.69668086     1.07620
O2627       O  0.72499530  0.02242940  0.68020755    -0.81970
O2628       O  0.71522907  0.37567941  0.70265029    -0.82050
O2629       O  0.76086454  0.43980840  0.66459268    -0.81980
O2630       O  0.73851469  0.43217498  0.71936035    -0.81960
O2631       O  0.67919884  0.40279102  0.72654440    -0.82020
O2632       O  0.71999345  0.48050244  0.65439197    -0.81980
O2633       O  0.76033925  0.99539191  0.69963302    -0.81940
O2634       O  0.76166167  0.39691101  0.68730993    -0.82010
Co2635     Co  0.67859153  0.48845656  0.67238032     1.51530
Co2636     Co  0.68313431  0.42348088  0.70689321     1.51690
Co2637     Co  0.71626389  0.40909967  0.67254566     1.51570
Co2638     Co  0.70851570  0.47402607  0.70727002     1.51470
O2639       O  0.69711129  0.44885691  0.68676877    -1.43910
C2640       C  0.75784754  0.01908069  0.68904285     1.07650
C2641       C  0.75238056  0.37434622  0.69727955     1.07740
C2642       C  0.75449250  0.46290688  0.65437045     1.07670
C2643       C  0.71795936  0.41131614  0.72911360     1.07650
O2644       O  0.77037116  0.27321194  0.85415613    -0.81970
O2645       O  0.81989697  0.36171795  0.78721216    -0.81990
O2646       O  0.74532939  0.36640961  0.83175392    -0.82000
O2647       O  0.74911693  0.26632031  0.81337681    -0.81940
O2648       O  0.78128812  0.38400422  0.81193748    -0.82070
O2649       O  0.78868209  0.23505922  0.82947246    -0.81990
O2650       O  0.76366130  0.33027010  0.79508904    -0.81970
O2651       O  0.76536077  0.33155773  0.85785328    -0.82010
C2652       C  0.75376061  0.29972980  0.86073256     1.07720
C2653       C  0.78153532  0.35199869  0.78508736     1.07600
C2654       C  0.74708365  0.38462516  0.81962291     1.07740
C2655       C  0.75383651  0.24010010  0.82243786     1.07620
O2656       O  0.87710749  0.26389041  0.83066438    -0.81970
O2657       O  0.87170760  0.36457464  0.81375472    -0.82050
O2658       O  0.85292826  0.35400649  0.85493072    -0.81980
O2659       O  0.79905966  0.27233582  0.78639513    -0.81960
O2660       O  0.85574422  0.30266206  0.79453563    -0.82020
O2661       O  0.85758351  0.29535296  0.85756659    -0.81980
O2662       O  0.84037401  0.24785114  0.81059301    -0.81940
O2663       O  0.83450857  0.39481451  0.83086815    -0.82010
Co2664     Co  0.82310686  0.27057141  0.84168438     1.51530
Co2665     Co  0.82011236  0.34027681  0.80692900     1.51690
Co2666     Co  0.79980666  0.35815177  0.84249455     1.51570
Co2667     Co  0.80030678  0.29159941  0.80656324     1.51470
O2668       O  0.81097589  0.31500355  0.82780758    -1.43910
C2669       C  0.87468445  0.24637622  0.81836827     1.07650
C2670       C  0.86793563  0.39055014  0.82294173     1.07740
C2671       C  0.86929066  0.32673295  0.86109395     1.07670
C2672       C  0.83720089  0.28236602  0.78408280     1.07650
C2673       C  0.73590784  0.35882098  0.74524411    -0.15180
C2674       C  0.73786868  0.39607839  0.74285375     0.06970
C2675       C  0.75012329  0.41877253  0.75499620    -0.15180
C2676       C  0.76112245  0.40424530  0.76934660    -0.15180
C2677       C  0.75952465  0.36696427  0.77171940     0.06970
C2678       C  0.74700253  0.34427352  0.75959897    -0.15180
H2679       H  0.72548706  0.34110007  0.73601146     0.10950
H2680       H  0.75013241  0.44764048  0.75348369     0.10950
H2681       H  0.77186305  0.42198625  0.77852375     0.10950
H2682       H  0.74736880  0.31540136  0.76106801     0.10950
C2683       C  0.65087546  0.03031005  0.76737869    -0.15180
C2684       C  0.60958979  0.01860674  0.77074369     0.06970
C2685       C  0.58793192  0.49636140  0.76006160    -0.15180
C2686       C  0.60714024  0.48608206  0.74625564    -0.15180
C2687       C  0.64837755  0.49784343  0.74286806     0.06970
C2688       C  0.67008872  0.02003562  0.75356437    -0.15180
H2689       H  0.66808093  0.04770605  0.77530350     0.10950
H2690       H  0.55586506  0.48700144  0.76230734     0.10950
H2691       H  0.58991808  0.46868544  0.73833765     0.10950
H2692       H  0.70218094  0.02934773  0.75132355     0.10950
C2693       C  0.92252762  0.48002431  0.82408340    -0.15180
C2694       C  0.96507284  0.46948845  0.82444179     0.06970
C2695       C  0.97564711  0.43305487  0.82458190    -0.14700
C2696       C  0.94374359  0.40714172  0.82394930    -0.15180
C2697       C  0.90118322  0.41762072  0.82364685     0.06970
C2698       C  0.89054367  0.45405448  0.82394776    -0.15180
H2699       H  0.91421805  0.00816922  0.82394844     0.10950
H2700       H  0.50857591  0.42473722  0.82470150     0.10950
H2701       H  0.95215956  0.37901853  0.82381155     0.10950
H2702       H  0.85761308  0.46232372  0.82367214     0.10950
C2703       C  0.69904179  0.15144329  0.82667077    -0.15180
C2704       C  0.65662815  0.16203620  0.82772192     0.06970
C2705       C  0.64610707  0.19849946  0.82743263    -0.15180
C2706       C  0.67789441  0.22426234  0.82544827    -0.15180
C2707       C  0.72025440  0.21355339  0.82417290     0.06970
C2708       C  0.73084311  0.17718229  0.82512822    -0.15180
H2709       H  0.70734751  0.12329204  0.82674758     0.10950
H2710       H  0.61324173  0.20685611  0.82798006     0.10950
H2711       H  0.66956675  0.25238396  0.82495473     0.10950
H2712       H  0.76358930  0.16867438  0.82422954     0.10950
C2713       C  0.66927185  0.40046243  0.81952981    -0.15180
C2714       C  0.71152284  0.40943476  0.81565845     0.06970
C2715       C  0.71978305  0.44380067  0.80956757    -0.15180
C2716       C  0.68727177  0.46941077  0.80856133    -0.15180
C2717       C  0.64542533  0.46088685  0.81306515     0.06970
C2718       C  0.63652012  0.42576524  0.81807687    -0.15180
H2719       H  0.66187165  0.37423695  0.82426395     0.10950
H2720       H  0.75195630  0.45169358  0.80660908     0.10950
H2721       H  0.69522557  0.99651930  0.80499686     0.10950
H2722       H  0.60488418  0.41871090  0.82200851     0.10950
C2723       C  0.93146587  0.15818555  0.81264873    -0.15180
C2724       C  0.97459907  0.16833920  0.81390855     0.06970
C2725       C  0.98468887  0.20512583  0.81456848    -0.15180
C2726       C  0.95216066  0.23089875  0.81518885    -0.15180
C2727       C  0.90899623  0.22047552  0.81461602     0.06970
C2728       C  0.89913590  0.18393407  0.81274605    -0.15180
H2729       H  0.92265921  0.13002930  0.81233583     0.10950
H2730       H  0.51748121  0.21375396  0.81584184     0.10950
H2731       H  0.96064667  0.25888086  0.81675248     0.10950
H2732       H  0.86625709  0.17503054  0.81251066     0.10950
C2733       C  0.92001013  0.26771391  0.75333055    -0.15180
C2734       C  0.89721136  0.24682091  0.74242516     0.06970
C2735       C  0.85486624  0.23771413  0.74538843    -0.15180
C2736       C  0.83576176  0.24908963  0.75905714    -0.15180
C2737       C  0.85868047  0.26972856  0.77001803     0.06970
C2738       C  0.90091616  0.27907423  0.76699623    -0.15180
H2739       H  0.95293474  0.27507949  0.75139642     0.10950
H2740       H  0.83669950  0.22159340  0.73724800     0.10950
H2741       H  0.80284551  0.24172148  0.76100764     0.10950
H2742       H  0.91913176  0.29510291  0.77515699     0.10950
C2743       C  0.52926833  0.33571448  0.68871385    -0.15180
C2744       C  0.53999523  0.29939345  0.68986712     0.06970
C2745       C  0.58252500  0.28884657  0.68936843    -0.15180
C2746       C  0.61431163  0.31473822  0.68778244    -0.15180
C2747       C  0.60349980  0.35110994  0.68710606     0.06970
C2748       C  0.56099307  0.36156036  0.68755388    -0.15180
H2749       H  0.99638602  0.34409427  0.68906320     0.10950
H2750       H  0.59096086  0.26077362  0.69007316     0.10950
H2751       H  0.64728942  0.30657500  0.68772481     0.10950
H2752       H  0.55251440  0.38966627  0.68719593     0.10950
C2753       C  0.86107580  0.06702901  0.69671775    -0.15180
C2754       C  0.85492584  0.09870978  0.68840666     0.06970
C2755       C  0.81812116  0.10379087  0.67960230    -0.15180
C2756       C  0.78695363  0.07708018  0.67924999    -0.15180
C2757       C  0.79231573  0.04551824  0.68794739     0.06970
C2758       C  0.82982621  0.04054884  0.69655715    -0.15180
H2759       H  0.88975712  0.06310248  0.70350100     0.10950
H2760       H  0.81346136  0.12842226  0.67317246     0.10950
H2761       H  0.75825497  0.08158945  0.67257250     0.10950
H2762       H  0.83479948  0.01646449  0.70333630     0.10950
C2763       C  0.85824802  0.32920963  0.70452236    -0.15180
C2764       C  0.84996908  0.29427417  0.69911402     0.06970
C2765       C  0.80753220  0.28467248  0.69562012    -0.15180
C2766       C  0.77461161  0.30986729  0.69667741    -0.15180
C2767       C  0.78349197  0.34554220  0.70086409     0.06970
C2768       C  0.82551534  0.35471615  0.70510467    -0.15180
H2769       H  0.89053651  0.33758345  0.70715719     0.10950
H2770       H  0.80011333  0.25799815  0.69138379     0.10950
H2771       H  0.74282686  0.30219884  0.69301481     0.10950
H2772       H  0.83340994  0.38219199  0.70810346     0.10950
C2773       C  0.58535995  0.11335437  0.69676077    -0.15180
C2774       C  0.54243837  0.10313326  0.69874613     0.06970
C2775       C  0.53341004  0.06714558  0.70244476    -0.15180
C2776       C  0.56609198  0.04155547  0.70286841    -0.15180
C2777       C  0.60876551  0.05150852  0.70016854     0.06970
C2778       C  0.61818136  0.08795452  0.69768344    -0.15180
H2779       H  0.59335072  0.14084418  0.69381967     0.10950
H2780       H  0.00077158  0.05828689  0.70385422     0.10950
H2781       H  0.55780037  0.01356952  0.70458604     0.10950
H2782       H  0.65051496  0.09635949  0.69525019     0.10950
C2783       C  0.53055705  0.15797047  0.74759000    -0.15180
C2784       C  0.49033982  0.14679253  0.74252336     0.06970
C2785       C  0.96658659  0.12270832  0.75176923    -0.15180
C2786       C  0.98260633  0.11012951  0.76581775    -0.15180
C2787       C  0.52278388  0.12125981  0.77090152     0.06970
C2788       C  0.54665872  0.14529162  0.76166135    -0.15180
H2789       H  0.54924978  0.17672721  0.74080555     0.10950
H2790       H  0.93523991  0.11363199  0.74820943     0.10950
H2791       H  0.96382397  0.09137239  0.77257121     0.10950
H2792       H  0.57803349  0.15421626  0.76525704     0.10950
C2793       C  0.59746846  0.25283388  0.62729354    -0.15180
C2794       C  0.60930321  0.22148515  0.61934991     0.06970
C2795       C  0.58842457  0.18911335  0.62296945    -0.15180
C2796       C  0.55605216  0.18779039  0.63373280    -0.15180
C2797       C  0.54293610  0.21878545  0.64151278     0.06970
C2798       C  0.56415396  0.25152533  0.63828813    -0.15180
H2799       H  0.61292365  0.27819379  0.62470971     0.10950
H2800       H  0.59685611  0.16429272  0.61727409     0.10950
H2801       H  0.54082379  0.16204060  0.63576437     0.10950
H2802       H  0.55502870  0.27585138  0.64419632     0.10950
C2803       C  0.81948589  0.21717171  0.61887297    -0.15180
C2804       C  0.78922356  0.18928553  0.61773740     0.06970
C2805       C  0.79399923  0.15892563  0.62733019    -0.15180
C2806       C  0.82821731  0.15715640  0.63799359    -0.15180
C2807       C  0.85727682  0.18603394  0.63929699     0.06970
C2808       C  0.85266469  0.21557475  0.62941197    -0.15180
H2809       H  0.81729714  0.24103903  0.61175008     0.10950
H2810       H  0.77148217  0.13685058  0.62660834     0.10950
H2811       H  0.83119100  0.13397119  0.64546124     0.10950
H2812       H  0.87465220  0.23809838  0.62997122     0.10950
C2813       C  0.83039043  0.49658118  0.62259104    -0.15180
C2814       C  0.85454660  0.46530626  0.62026250     0.06970
C2815       C  0.84470664  0.43457230  0.62890644    -0.15180
C2816       C  0.81193737  0.43460196  0.63954512    -0.15180
C2817       C  0.78733039  0.46537779  0.64204579     0.06970
C2818       C  0.79658416  0.49652889  0.63337554    -0.15180
H2819       H  0.83708369  0.52057571  0.61591722     0.10950
H2820       H  0.86260093  0.41009744  0.62745507     0.10950
H2821       H  0.80579469  0.40995526  0.64585113     0.10950
H2822       H  0.77835457  0.52068470  0.63509825     0.10950
C2823       C  0.56419333  0.40091438  0.62175069    -0.15180
C2824       C  0.53992108  0.43222234  0.61943607     0.06970
C2825       C  0.55004048  0.46272065  0.62824686    -0.15180
C2826       C  0.58310206  0.46260866  0.63886200    -0.15180
C2827       C  0.60778656  0.43187989  0.64138915     0.06970
C2828       C  0.59825313  0.40081391  0.63264172    -0.15180
H2829       H  0.55739738  0.37703729  0.61502228     0.10950
H2830       H  0.53222979  0.98730657  0.62692549     0.10950
H2831       H  0.58936400  0.98725028  0.64515722     0.10950
H2832       H  0.61647026  0.37661778  0.63436946     0.10950
C2833       C  0.58153865  0.36428451  0.57060467    -0.15180
C2834       C  0.53871268  0.35438119  0.56904892     0.06970
C2835       C  0.52723173  0.31794405  0.56832958    -0.15180
C2836       C  0.55834409  0.29159556  0.56886895    -0.15180
C2837       C  0.60115570  0.30139220  0.57065309     0.06970
C2838       C  0.61259792  0.33785555  0.57163449    -0.15180
H2839       H  0.59076192  0.39230474  0.57131386     0.10950
H2840       H  0.99418056  0.30993487  0.56713875     0.10950
H2841       H  0.54902422  0.26361681  0.56802197     0.10950
H2842       H  0.64564364  0.34588072  0.57281027     0.10950
C2843       C  0.80907523  0.04393179  0.57500576    -0.15180
C2844       C  0.85211341  0.05341243  0.57404621     0.06970
C2845       C  0.86431182  0.08971290  0.57375709    -0.15180
C2846       C  0.83357005  0.11638506  0.57385702    -0.15180
C2847       C  0.79049925  0.10693752  0.57479331     0.06970
C2848       C  0.77839509  0.07064272  0.57563255    -0.15180
H2849       H  0.79933374  0.01599078  0.57527985     0.10950
H2850       H  0.89754460  0.09734623  0.57293294     0.10950
H2851       H  0.84328466  0.14428843  0.57311430     0.10950
H2852       H  0.74512577  0.06297690  0.57614669     0.10950
C2853       C  0.53195791  0.08691767  0.55841229    -0.15180
C2854       C  0.53973863  0.05074782  0.56184911     0.06970
C2855       C  0.58234749  0.03973032  0.56350578    -0.15180
C2856       C  0.61613904  0.06464105  0.56280486    -0.15180
C2857       C  0.60798911  0.10128861  0.56082240     0.06970
C2858       C  0.56566941  0.11198590  0.55815480    -0.15180
H2859       H  0.49962725  0.09630156  0.55718551     0.10950
H2860       H  0.58936613  0.01199372  0.56616530     0.10950
H2861       H  0.64820989  0.05566758  0.56512334     0.10950
H2862       H  0.55845547  0.14016244  0.55672772     0.10950
C2863       C  0.80737482  0.36826795  0.56109366    -0.15180
C2864       C  0.84989072  0.35794915  0.55870250     0.06970
C2865       C  0.85767240  0.32224842  0.55445553    -0.15180
C2866       C  0.82422609  0.29684653  0.55408160    -0.15180
C2867       C  0.78209512  0.30678035  0.55743268     0.06970
C2868       C  0.77383737  0.34309331  0.56029259    -0.15180
H2869       H  0.80035215  0.39554494  0.56447403     0.10950
H2870       H  0.88997544  0.31330970  0.55274703     0.10950
H2871       H  0.83163700  0.26890085  0.55212090     0.10950
H2872       H  0.74201622  0.35143474  0.56327845     0.10950
C2873       C  0.72812106  0.28527169  0.49211371    -0.15180
C2874       C  0.77158530  0.28221856  0.48934983     0.06970
C2875       C  0.79748051  0.26497022  0.50047090    -0.15180
C2876       C  0.78020328  0.25066682  0.51400630    -0.15180
C2877       C  0.73668728  0.25339698  0.51671533     0.06970
C2878       C  0.71081834  0.27094568  0.50566405    -0.15180
H2879       H  0.70756977  0.29840405  0.48379817     0.10950
H2880       H  0.83139514  0.26247522  0.49874107     0.10950
H2881       H  0.80079712  0.23747984  0.52229098     0.10950
H2882       H  0.67690436  0.27340666  0.50740031     0.10950
C2883       C  0.90402887  0.37227570  0.49280441    -0.15180
C2884       C  0.86408780  0.38393563  0.48788304     0.06970
C2885       C  0.84146743  0.40786810  0.49743714    -0.15180
C2886       C  0.85832957  0.41974124  0.51160306    -0.15180
C2887       C  0.89826150  0.40801948  0.51652658     0.06970
C2888       C  0.92089909  0.38417606  0.50693872    -0.15180
H2889       H  0.92191898  0.35357603  0.48586902     0.10950
H2890       H  0.81030800  0.41726067  0.49403715     0.10950
H2891       H  0.84041092  0.43833197  0.51858205     0.10950
H2892       H  0.95197901  0.37461045  0.51034568     0.10950
C2893       C  0.53144940  0.02205720  0.49869167    -0.15180
C2894       C  0.50857327  0.05161777  0.49277294     0.06970
C2895       C  0.97725000  0.06725523  0.50183124    -0.15180
C2896       C  0.96597173  0.05104696  0.51585701    -0.15180
C2897       C  0.48619029  0.01935582  0.52097586     0.06970
C2898       C  0.52038830  0.00606024  0.51268446    -0.15180
H2899       H  0.55705056  0.01028042  0.49212381     0.10950
H2900       H  0.96000679  0.09042148  0.49769985     0.10950
H2901       H  0.93979500  0.06220902  0.52231196     0.10950
H2902       H  0.53649808  0.48194916  0.51641420     0.10950
C2903       C  0.92619292  0.16615395  0.43348387    -0.15180
C2904       C  0.96853355  0.17586811  0.43082158     0.06970
C2905       C  0.98069394  0.21218731  0.43052663    -0.15180
C2906       C  0.95063691  0.23865126  0.43342203    -0.15180
C2907       C  0.90843089  0.22866735  0.43634237     0.06970
C2908       C  0.89625428  0.19241094  0.43608712    -0.15180
H2909       H  0.91665241  0.13817207  0.43404503     0.10950
H2910       H  0.51366133  0.21988093  0.42888905     0.10950
H2911       H  0.96007556  0.26666449  0.43322849     0.10950
H2912       H  0.86355300  0.18438919  0.43813918     0.10950
C2913       C  0.64873435  0.44599976  0.43096775    -0.15180
C2914       C  0.66069871  0.48234914  0.43085442     0.06970
C2915       C  0.70367448  0.49211448  0.43174644    -0.15180
C2916       C  0.73453247  0.46576889  0.43282735    -0.15180
C2917       C  0.72261492  0.42946713  0.43356773     0.06970
C2918       C  0.67964318  0.41957121  0.43254035    -0.15180
H2919       H  0.61547048  0.43822360  0.43066734     0.10950
H2920       H  0.71318359  0.02012380  0.43195755     0.10950
H2921       H  0.76769211  0.47374751  0.43356266     0.10950
H2922       H  0.67015585  0.39157981  0.43291816     0.10950
C2923       C  0.90712090  0.45776089  0.42914519    -0.15180
C2924       C  0.90736077  0.42846624  0.43929326     0.06970
C2925       C  0.94079487  0.42471222  0.44996612    -0.15180
C2926       C  0.97451534  0.44965458  0.45008377    -0.15180
C2927       C  0.97474059  0.47867092  0.43962485     0.06970
C2928       C  0.94020086  0.48280140  0.42940109    -0.15180
H2929       H  0.88168278  0.46078070  0.42074162     0.10950
H2930       H  0.94152480  0.40193373  0.45776434     0.10950
H2931       H  0.50054769  0.44604306  0.45817369     0.10950
H2932       H  0.93923512  0.00491605  0.42126544     0.10950
C2933       C  0.69618588  0.17102172  0.43913846    -0.15180
C2934       C  0.65380335  0.18195660  0.44081964     0.06970
C2935       C  0.64564731  0.21812095  0.44426231    -0.15180
C2936       C  0.67904805  0.24321152  0.44505871    -0.15180
C2937       C  0.72120453  0.23232078  0.44297810     0.06970
C2938       C  0.72959554  0.19595145  0.44034032    -0.15180
H2939       H  0.70342977  0.14330851  0.43658556     0.10950
H2940       H  0.61330629  0.22730391  0.44560820     0.10950
H2941       H  0.67190578  0.27132211  0.44670453     0.10950
H2942       H  0.76183444  0.18721936  0.43827375     0.10950
C2943       C  0.60652285  0.14047625  0.49827943    -0.15180
C2944       C  0.62720624  0.11027098  0.49201998     0.06970
C2945       C  0.65858971  0.09318631  0.50071660    -0.15180
C2946       C  0.67177458  0.10828543  0.51478885    -0.15180
C2947       C  0.65313696  0.14012417  0.52035379     0.06970
C2948       C  0.61927527  0.15519601  0.51232917    -0.15180
H2949       H  0.58086928  0.15345377  0.49206995     0.10950
H2950       H  0.67409974  0.06947304  0.49634520     0.10950
H2951       H  0.69782863  0.09595470  0.52101096     0.10950
H2952       H  0.60451394  0.17957417  0.51638657     0.10950
C2953       C  0.89866289  0.06151148  0.87977220    -0.15180
C2954       C  0.90148469  0.03871903  0.89258018     0.06970
C2955       C  0.93672992  0.01579178  0.89392582    -0.15180
C2956       C  0.96980730  0.01737888  0.88288916    -0.15180
C2957       C  0.96748666  0.04155388  0.87034306     0.06970
C2958       C  0.93068168  0.06262951  0.86878541    -0.15180
H2959       H  0.87175860  0.07924335  0.87841631     0.10950
H2960       H  0.93959610  0.99806775  0.90381837     0.10950
H2961       H  0.49754296  0.00074019  0.88443562     0.10950
H2962       H  0.92695901  0.08127717  0.85925396     0.10950
C2963       C  0.68514238  0.09937872  0.89574682    -0.15180
C2964       C  0.72062128  0.07735001  0.89322693     0.06970
C2965       C  0.72400076  0.05888522  0.87926674    -0.15180
C2966       C  0.69209311  0.06105042  0.86818551    -0.15180
C2967       C  0.65486157  0.08091824  0.87086753     0.06970
C2968       C  0.65209057  0.10091251  0.88464109    -0.15180
H2969       H  0.68213047  0.11391523  0.90652504     0.10950
H2970       H  0.75126781  0.04211498  0.87702445     0.10950
H2971       H  0.69613627  0.04571380  0.85765873     0.10950
H2972       H  0.62400668  0.11648249  0.88705288     0.10950
C2973       C  0.69021506  0.31551366  0.89666997    -0.15180
C2974       C  0.65547713  0.29156156  0.89519150     0.06970
C2975       C  0.65474773  0.26779373  0.88251473    -0.15180
C2976       C  0.68756052  0.26899560  0.87139448    -0.15180
C2977       C  0.72085751  0.29441474  0.87273357     0.06970
C2978       C  0.72194336  0.31712607  0.88559365    -0.15180
H2979       H  0.69259879  0.33410761  0.90626763     0.10950
H2980       H  0.62859571  0.24901990  0.88102888     0.10950
H2981       H  0.68609202  0.25116859  0.86150955     0.10950
H2982       H  0.74742126  0.33662402  0.88703663     0.10950
C2983       C  0.93091342  0.30598510  0.89716500    -0.15180
C2984       C  0.96833033  0.32667993  0.89557074     0.06970
C2985       C  0.97106644  0.35103911  0.88310733    -0.15180
C2986       C  0.93781599  0.35300390  0.87208328    -0.15180
C2987       C  0.90194718  0.33030553  0.87337613     0.06970
C2988       C  0.89860447  0.30753119  0.88619903    -0.15180
H2989       H  0.92693780  0.28735352  0.90669660     0.10950
H2990       H  0.49930004  0.36745814  0.88158622     0.10950
H2991       H  0.94103461  0.37077806  0.86221731     0.10950
H2992       H  0.87110898  0.29009850  0.88756869     0.10950
C2993       C  0.97516428  0.43666703  0.93990012    -0.15180
C2994       C  0.96404699  0.40014853  0.94053053     0.06970
C2995       C  0.92121403  0.38983860  0.94142475    -0.15180
C2996       C  0.88971623  0.41591181  0.94159853    -0.15180
C2997       C  0.90096491  0.45242014  0.94142817     0.06970
C2998       C  0.94377798  0.46271831  0.94059549    -0.15180
H2999       H  0.50821311  0.44501621  0.93938981     0.10950
H3000       H  0.91225499  0.36173864  0.94197097     0.10950
H3001       H  0.85666903  0.40765685  0.94228971     0.10950
H3002       H  0.95280527  0.49083149  0.94037640     0.10950
C3003       C  0.70091780  0.21868865  0.94320109    -0.15180
C3004       C  0.65857632  0.20888849  0.94018856     0.06970
C3005       C  0.64770505  0.17259061  0.93808565    -0.15180
C3006       C  0.67872144  0.14626395  0.93938664    -0.15180
C3007       C  0.72101314  0.15616191  0.94230300     0.06970
C3008       C  0.73212754  0.19245924  0.94398881    -0.15180
H3009       H  0.70974250  0.24655200  0.94495211     0.10950
H3010       H  0.61501214  0.16452855  0.93597647     0.10950
H3011       H  0.66989166  0.11830311  0.93794656     0.10950
H3012       H  0.76480095  0.20037554  0.94624539     0.10950
C3013       C  0.93499806  0.20995965  0.95628793    -0.15180
C3014       C  0.97699803  0.20013756  0.95278664     0.06970
C3015       C  0.98568822  0.16381572  0.95014817    -0.15180
C3016       C  0.95247696  0.13835095  0.94972086    -0.15180
C3017       C  0.91005613  0.14850468  0.95233387     0.06970
C3018       C  0.90195608  0.18430090  0.95632747    -0.15180
H3019       H  0.92739698  0.23790724  0.95815001     0.10950
H3020       H  0.51754066  0.15562969  0.94712642     0.10950
H3021       H  0.95962589  0.11097265  0.94653623     0.10950
H3022       H  0.86963616  0.19302308  0.95820487     0.10950
C3023       C  0.63589795  0.44475379  0.94811340    -0.15180
C3024       C  0.64362286  0.41016916  0.95383281     0.06970
C3025       C  0.68477038  0.40202276  0.95918955    -0.15180
C3026       C  0.71802926  0.42735875  0.95812243    -0.15180
C3027       C  0.71109164  0.46092504  0.95116027     0.06970
C3028       C  0.66932620  0.46974763  0.94666473    -0.15180
H3029       H  0.60481971  0.45141614  0.94353519     0.10950
H3030       H  0.69173725  0.37524644  0.96332142     0.10950
H3031       H  0.74977754  0.41967867  0.96163430     0.10950
H3032       H  0.66291802  0.49543446  0.94130112     0.10950
C3033       C  0.70766175  0.50268736  0.01417296    -0.15180
C3034       C  0.73136594  0.48000538  0.02402054     0.06970
C3035       C  0.77171175  0.46914966  0.01941050    -0.15180
C3036       C  0.78799464  0.48057811  0.00522411    -0.15180
C3037       C  0.76436180  0.00322328  0.99533597     0.06970
C3038       C  0.72403420  0.01423544  0.99996385    -0.15180
H3039       H  0.67613894  0.51132543  0.01738493     0.10950
H3040       H  0.79037872  0.45139952  0.02662991     0.10950
H3041       H  0.81946790  0.47172707  0.00206043     0.10950
H3042       H  0.70540148  0.03191677  0.99270532     0.10950
C3043       C  0.66493007  0.36110071  0.01231046    -0.15180
C3044       C  0.64022401  0.37810315  0.02369388     0.06970
C3045       C  0.59687753  0.38315583  0.02099997    -0.15180
C3046       C  0.57854879  0.37129721  0.00715389    -0.15180
C3047       C  0.60331933  0.35429602  0.99577906     0.06970
C3048       C  0.64664878  0.34929813  0.99848812    -0.15180
H3049       H  0.69869384  0.35711298  0.01400431     0.10950
H3050       H  0.57728186  0.39629513  0.02952654     0.10950
H3051       H  0.54479355  0.37524058  0.00542419     0.10950
H3052       H  0.66634437  0.33619329  0.98998232     0.10950
C3053       C  0.91191864  0.09714016  0.01531793    -0.15180
C3054       C  0.89097102  0.12310928  0.02428735     0.06970
C3055       C  0.85306497  0.13782082  0.01888973    -0.15180
C3056       C  0.83651649  0.12700602  0.00466467    -0.15180
C3057       C  0.85750535  0.10117121  0.99563541     0.06970
C3058       C  0.89529815  0.08625199  0.00107111    -0.15180
H3059       H  0.94151775  0.08549715  0.01923157     0.10950
H3060       H  0.83683489  0.15826858  0.02544833     0.10950
H3061       H  0.80706179  0.13891552  0.00075867     0.10950
H3062       H  0.91157957  0.06594637  0.99445161     0.10950
C3063       C  0.51925938  0.04112806  0.07347984    -0.15180
C3064       C  0.53180795  0.07727245  0.07332580     0.06970
C3065       C  0.57464162  0.08714234  0.07257378    -0.15180
C3066       C  0.60520727  0.06071842  0.07289369    -0.15180
C3067       C  0.59268994  0.02461154  0.07352496     0.06970
C3068       C  0.54982242  0.01467162  0.07335998    -0.15180
H3069       H  0.98595109  0.03350712  0.07388710     0.10950
H3070       H  0.58432041  0.11511214  0.07242250     0.10950
H3071       H  0.63853494  0.06835450  0.07285355     0.10950
H3072       H  0.54020225  0.48670508  0.07381590     0.10950
C3073       C  0.85656231  0.31217840  0.07009335    -0.15180
C3074       C  0.84432646  0.27596624  0.07047649     0.06970
C3075       C  0.80150845  0.26585393  0.07017427    -0.15180
C3076       C  0.77077456  0.29214414  0.07064876    -0.15180
C3077       C  0.78306474  0.32834796  0.07101083     0.06970
C3078       C  0.82580177  0.33847290  0.07015149    -0.15180
H3079       H  0.88983043  0.31999911  0.07016109     0.10950
H3080       H  0.79203515  0.23783966  0.07044802     0.10950
H3081       H  0.73753711  0.28431590  0.07111234     0.10950
H3082       H  0.83530072  0.36648167  0.07037262     0.10950
C3083       C  0.85244689  0.04253003  0.06825479    -0.15180
C3084       C  0.84466918  0.07854691  0.07206768     0.06970
C3085       C  0.80270669  0.08887529  0.07520350    -0.15180
C3086       C  0.76943089  0.06357999  0.07505841    -0.15180
C3087       C  0.77756228  0.02725757  0.07216421     0.06970
C3088       C  0.81923884  0.01696941  0.06854530    -0.15180
H3089       H  0.88459089  0.03375634  0.06605837     0.10950
H3090       H  0.79593998  0.11637296  0.07831670     0.10950
H3091       H  0.73768610  0.07202298  0.07810184     0.10950
H3092       H  0.82632153  0.48898655  0.06651776     0.10950
C3093       C  0.52193045  0.31240005  0.06870519    -0.15180
C3094       C  0.53054618  0.27555326  0.06972114     0.06970
C3095       C  0.57310045  0.26442397  0.07016892    -0.15180
C3096       C  0.60643637  0.28972888  0.07011931    -0.15180
C3097       C  0.59774356  0.32661783  0.07011181     0.06970
C3098       C  0.55524386  0.33774456  0.06913938    -0.15180
H3099       H  0.98937013  0.32163120  0.06869007     0.10950
H3100       H  0.58045249  0.23618958  0.07123292     0.10950
H3101       H  0.63890454  0.28054857  0.07116743     0.10950
H3102       H  0.54780379  0.36605458  0.06937425     0.10950
C3103       C  0.95864086  0.24250760  0.01168017    -0.15180
C3104       C  0.98375438  0.22435630  0.02273733     0.06970
C3105       C  0.52669946  0.21864664  0.01967662    -0.15180
C3106       C  0.54429780  0.23123273  0.00586459    -0.15180
C3107       C  0.51921101  0.24967080  0.99488142     0.06970
C3108       C  0.97619684  0.25505469  0.99789598    -0.15180
H3109       H  0.92513633  0.24702126  0.01363746     0.10950
H3110       H  0.54658617  0.20459095  0.02792139     0.10950
H3111       H  0.57781945  0.22686735  0.00389260     0.10950
H3112       H  0.95625076  0.26920220  0.98969845     0.10950
C3113       C  0.58816638  0.15458818  0.14017591    -0.15180
C3114       C  0.60397946  0.18903741  0.14385398     0.06970
C3115       C  0.58620037  0.21909684  0.13662599    -0.15180
C3116       C  0.55213680  0.21479037  0.12630798    -0.15180
C3117       C  0.53597500  0.18034707  0.12284427     0.06970
C3118       C  0.55476895  0.15025638  0.12964634    -0.15180
H3119       H  0.60150847  0.13086860  0.14551774     0.10950
H3120       H  0.59783213  0.24584923  0.13924860     0.10950
H3121       H  0.53826964  0.23840880  0.12106782     0.10950
H3122       H  0.04283207  0.12350518  0.12718427     0.10950
C3123       C  0.78826898  0.20363333  0.13935973    -0.15180
C3124       C  0.77244645  0.16902470  0.14271753     0.06970
C3125       C  0.78934557  0.13937281  0.13502394    -0.15180
C3126       C  0.82298664  0.14409885  0.12472121    -0.15180
C3127       C  0.83959073  0.17858545  0.12171867     0.06970
C3128       C  0.82129747  0.20842195  0.12879974    -0.15180
H3129       H  0.77545148  0.22701394  0.14506058     0.10950
H3130       H  0.77761043  0.11251548  0.13737171     0.10950
H3131       H  0.83648906  0.12071496  0.11924003     0.10950
H3132       H  0.83365661  0.23518105  0.12666251     0.10950
C3133       C  0.83394687  0.46360106  0.13878931    -0.15180
C3134       C  0.85226891  0.43372811  0.14602559     0.06970
C3135       C  0.83744061  0.39913072  0.14202849    -0.15180
C3136       C  0.80463746  0.39462376  0.13111104    -0.15180
C3137       C  0.78558703  0.42467974  0.12425967     0.06970
C3138       C  0.80082341  0.45913155  0.12813470    -0.15180
H3139       H  0.84468105  0.49053327  0.14156024     0.10950
H3140       H  0.85108710  0.37555687  0.14737936     0.10950
H3141       H  0.79338402  0.36781926  0.12837138     0.10950
H3142       H  0.78692980  0.48278797  0.12293273     0.10950
C3143       C  0.54293921  0.38451820  0.13870097    -0.15180
C3144       C  0.52408819  0.41466838  0.14541635     0.06970
C3145       C  0.53846011  0.44913077  0.14102496    -0.15180
C3146       C  0.57139160  0.45333719  0.13032688    -0.15180
C3147       C  0.59113108  0.42315975  0.12400853     0.06970
C3148       C  0.57631702  0.38872909  0.12819314    -0.15180
H3149       H  0.03257759  0.35769541  0.14182521     0.10950
H3150       H  0.52449860  0.47294957  0.14597050     0.10950
H3151       H  0.58219349  0.48012538  0.12733923     0.10950
H3152       H  0.59074222  0.36496348  0.12337863     0.10950
C3153       C  0.51962329  0.06320877  0.18401081    -0.15180
C3154       C  0.52995782  0.02766243  0.18047264     0.06970
C3155       C  0.57180419  0.01897318  0.17658996    -0.15180
C3156       C  0.60365139  0.04517801  0.17723008    -0.15180
C3157       C  0.59407140  0.07988534  0.18230273     0.06970
C3158       C  0.55173527  0.08915129  0.18517906    -0.15180
H3159       H  0.98747561  0.07013039  0.18723510     0.10950
H3160       H  0.58016711  0.49152026  0.17395424     0.10950
H3161       H  0.63623503  0.03759156  0.17503290     0.10950
H3162       H  0.54391243  0.11590776  0.18905708     0.10950
C3163       C  0.85955926  0.29213079  0.18579666    -0.15180
C3164       C  0.84856448  0.32851501  0.18538093     0.06970
C3165       C  0.80572017  0.33818347  0.18406760    -0.15180
C3166       C  0.77404749  0.31175570  0.18385537    -0.15180
C3167       C  0.78490121  0.27554993  0.18547607     0.06970
C3168       C  0.82777696  0.26574771  0.18613869    -0.15180
H3169       H  0.89249899  0.28427242  0.18696461     0.10950
H3170       H  0.79677301  0.36617839  0.18376774     0.10950
H3171       H  0.74099943  0.31969673  0.18350861     0.10950
H3172       H  0.83650172  0.23786078  0.18747441     0.10950
C3173       C  0.81343511  0.01696508  0.20139816    -0.15180
C3174       C  0.85580186  0.02855991  0.19954806     0.06970
C3175       C  0.86331533  0.06469779  0.19561986    -0.15180
C3176       C  0.82904832  0.08823085  0.19302284    -0.15180
C3177       C  0.78659441  0.07623825  0.19454235     0.06970
C3178       C  0.77943919  0.04049414  0.19912988    -0.15180
H3179       H  0.80656797  0.48917402  0.20419514     0.10950
H3180       H  0.89550397  0.07422942  0.19375324     0.10950
H3181       H  0.83573479  0.11571215  0.18969328     0.10950
H3182       H  0.74732357  0.03032674  0.20052914     0.10950
C3183       C  0.57089915  0.33759955  0.20168691    -0.15180
C3184       C  0.52816504  0.32647377  0.20058979     0.06970
C3185       C  0.51936227  0.29002133  0.19769848    -0.15180
C3186       C  0.55274248  0.26558681  0.19536281    -0.15180
C3187       C  0.59554962  0.27701841  0.19619422     0.06970
C3188       C  0.60405884  0.31316968  0.19975717    -0.15180
H3189       H  0.57864810  0.36559267  0.20369339     0.10950
H3190       H  0.98676747  0.28082956  0.19645732     0.10950
H3191       H  0.54511181  0.23782703  0.19281659     0.10950
H3192       H  0.63654659  0.32288163  0.20056677     0.10950
C3193       C  0.91575157  0.31637478  0.35739317    -0.15180
C3194       C  0.95639839  0.30151896  0.35920636     0.06970
C3195       C  0.96806465  0.28752375  0.37378243    -0.15180
C3196       C  0.94032359  0.29000017  0.38641343    -0.15180
C3197       C  0.90119784  0.30737972  0.38468297     0.06970
C3198       C  0.88879235  0.31973003  0.37003080    -0.15180
H3199       H  0.90563854  0.32753634  0.34640466     0.10950
H3200       H  0.49925331  0.27613020  0.37558129     0.10950
H3201       H  0.95020515  0.28000217  0.39764431     0.10950
H3202       H  0.85832771  0.33260361  0.36841489     0.10950
C3203       C  0.70558580  0.35767322  0.35934584    -0.15180
C3204       C  0.67861168  0.32779351  0.35734737     0.06970
C3205       C  0.67723887  0.30093725  0.36871809    -0.15180
C3206       C  0.70290682  0.30351480  0.38180878    -0.15180
C3207       C  0.72977444  0.33333175  0.38390340     0.06970
C3208       C  0.73079427  0.36061708  0.37268580    -0.15180
H3209       H  0.70656282  0.37890243  0.35076505     0.10950
H3210       H  0.65650121  0.27775944  0.36741009     0.10950
H3211       H  0.70201367  0.28205756  0.39028741     0.10950
H3212       H  0.75197472  0.38349017  0.37401443     0.10950
C3213       C  0.63724781  0.20945271  0.27246723    -0.15180
C3214       C  0.62811766  0.24658178  0.27220705     0.06970
C3215       C  0.62092559  0.26334038  0.25802202    -0.15180
C3216       C  0.62186925  0.24322044  0.24439338    -0.15180
C3217       C  0.63079242  0.20592632  0.24458557     0.06970
C3218       C  0.63830994  0.18928966  0.25882137    -0.15180
H3219       H  0.64238069  0.19573469  0.28338632     0.10950
H3220       H  0.61275287  0.29147490  0.25751624     0.10950
H3221       H  0.61621471  0.25724311  0.23358832     0.10950
H3222       H  0.64588114  0.16103550  0.25938485     0.10950
C3223       C  0.54381080  0.40193775  0.25316181    -0.15180
C3224       C  0.02608205  0.38447243  0.24030158     0.06970
C3225       C  0.02088452  0.34669940  0.24108788    -0.15180
C3226       C  0.02927766  0.32741385  0.25481334    -0.15180
C3227       C  0.04235132  0.34566471  0.26819067     0.06970
C3228       C  0.55187071  0.38280147  0.26688576    -0.15180
H3229       H  0.54698803  0.43091107  0.25321259     0.10950
H3230       H  0.00594037  0.33245280  0.23160916     0.10950
H3231       H  0.02132248  0.29912909  0.25537427     0.10950
H3232       H  0.56215455  0.39781838  0.27699344     0.10950
C3233       C  0.91634240  0.02240862  0.37843935    -0.15180
C3234       C  0.89914884  0.05385441  0.37200792     0.06970
C3235       C  0.91895414  0.08691148  0.37544555    -0.15180
C3236       C  0.95499658  0.08864763  0.38499135    -0.15180
C3237       C  0.97324208  0.05726160  0.39095692     0.06970
C3238       C  0.95357972  0.02403203  0.38757250    -0.15180
H3239       H  0.90174769  0.99657035  0.37606312     0.10950
H3240       H  0.90643401  0.11163549  0.37073250     0.10950
H3241       H  0.96913105  0.11462311  0.38748661     0.10950
H3242       H  0.96657610  0.99941895  0.39220781     0.10950
C3243       C  0.70480016  0.06185787  0.37568309    -0.15180
C3244       C  0.72471081  0.09339213  0.37036927     0.06970
C3245       C  0.70832157  0.12676047  0.37489276    -0.15180
C3246       C  0.67226969  0.12831925  0.38447211    -0.15180
C3247       C  0.65285421  0.09653111  0.38988405     0.06970
C3248       C  0.66971992  0.06340346  0.38542875    -0.15180
H3249       H  0.71658245  0.03576410  0.37235235     0.10950
H3250       H  0.72278048  0.15144691  0.37078433     0.10950
H3251       H  0.66007333  0.15421030  0.38785877     0.10950
H3252       H  0.65550474  0.03848195  0.38941103     0.10950
C3253       C  0.73567226  0.13133284  0.27150229    -0.15180
C3254       C  0.74888796  0.09510541  0.27094142     0.06970
C3255       C  0.76420199  0.08172783  0.25694668    -0.15180
C3256       C  0.76601400  0.10390418  0.24386668    -0.15180
C3257       C  0.75209976  0.13996791  0.24438280     0.06970
C3258       C  0.73783030  0.15356569  0.25846377    -0.15180
H3259       H  0.72450902  0.14291019  0.28222669     0.10950
H3260       H  0.77576071  0.05451451  0.25620594     0.10950
H3261       H  0.77697913  0.09231760  0.23311393     0.10950
H3262       H  0.72661780  0.18086517  0.25924053     0.10950
C3263       C  0.96767935  0.19287821  0.30934493    -0.15180
C3264       C  0.95554297  0.22776347  0.31335808     0.06970
C3265       C  0.91795588  0.23283413  0.32173717    -0.15180
C3266       C  0.89261025  0.20314413  0.32584973    -0.15180
C3267       C  0.90465759  0.16831160  0.32152696     0.06970
C3268       C  0.94253279  0.16355092  0.31333547    -0.15180
H3269       H  0.49708931  0.18828649  0.30319631     0.10950
H3270       H  0.90888576  0.25945142  0.32540554     0.10950
H3271       H  0.86298640  0.20747707  0.33187538     0.10950
H3272       H  0.95224476  0.13705203  0.30970071     0.10950
C3273       C  0.71571878  0.44159647  0.31675433    -0.15180
C3274       C  0.71207077  0.46856956  0.32797307     0.06970
C3275       C  0.67296313  0.47397006  0.33521964    -0.15180
C3276       C  0.63835261  0.45149641  0.33168869    -0.15180
C3277       C  0.64216825  0.42427447  0.32048793     0.06970
C3278       C  0.68107775  0.41987475  0.31293865    -0.15180
H3279       H  0.74528216  0.43814472  0.31055189     0.10950
H3280       H  0.66905389  0.49585701  0.34331102     0.10950
H3281       H  0.60888469  0.45472453  0.33795048     0.10950
H3282       H  0.68544869  0.39835203  0.30469151     0.10950
C3283       C  0.74089260  0.20464998  0.32773971    -0.15180
C3284       C  0.72680224  0.16927273  0.32589041     0.06970
C3285       C  0.68321760  0.16114757  0.32718054    -0.15180
C3286       C  0.65364902  0.18879490  0.32868156    -0.15180
C3287       C  0.66771526  0.22458369  0.32925222     0.06970
C3288       C  0.71163676  0.23200146  0.32969079    -0.15180
H3289       H  0.77448390  0.21123337  0.32728693     0.10950
H3290       H  0.67195946  0.13371884  0.32606883     0.10950
H3291       H  0.62000820  0.18245835  0.32809817     0.10950
H3292       H  0.72327167  0.25942264  0.33023096     0.10950
C3293       C  0.92635699  0.46651691  0.34075932    -0.15180
C3294       C  0.89711131  0.46292738  0.32841083     0.06970
C3295       C  0.90259583  0.43558489  0.31756231    -0.15180
C3296       C  0.93758095  0.41306194  0.31872291    -0.15180
C3297       C  0.96706467  0.41693485  0.33095383     0.06970
C3298       C  0.96076374  0.44325061  0.34218295    -0.15180
H3299       H  0.92288864  0.48765311  0.34919518     0.10950
H3300       H  0.88071086  0.43239668  0.30792618     0.10950
H3301       H  0.94171923  0.39254095  0.30999440     0.10950
H3302       H  0.48313223  0.44661477  0.35165897     0.10950
C3303       C  0.86586151  0.03660627  0.25497217    -0.15180
C3304       C  0.86563940  0.02138666  0.26986417     0.06970
C3305       C  0.86938997  0.48355040  0.27098226    -0.15180
C3306       C  0.87402598  0.46188004  0.25789277    -0.15180
C3307       C  0.87580206  0.47700160  0.24310458     0.06970
C3308       C  0.87177738  0.01471224  0.24179988    -0.15180
H3309       H  0.86252861  0.06530404  0.25353073     0.10950
H3310       H  0.86904443  0.47022378  0.28213212     0.10950
H3311       H  0.87930739  0.43340429  0.25944935     0.10950
H3312       H  0.87541101  0.02753752  0.23065573     0.10950
O3313       O  0.85503371  0.52391684  0.29646317    -0.81970
O3314       O  0.86152679  0.57688593  0.34999454    -0.81990
O3315       O  0.87381683  0.61699106  0.31090496    -0.82000
O3316       O  0.86691184  0.01922456  0.33269545    -0.81940
O3317       O  0.84617065  0.63588596  0.33304168    -0.82070
O3318       O  0.82921546  0.98245895  0.31889397    -0.81990
O3319       O  0.83372803  0.52905255  0.36100786    -0.81970
O3320       O  0.84398428  0.57465711  0.28496150    -0.82010
C3321       C  0.85694930  0.54212744  0.28444700     1.07720
C3322       C  0.86284236  0.55312664  0.36085644     1.07600
C3323       C  0.87455805  0.63802881  0.32239980     1.07740
C3324       C  0.86289571  0.98923503  0.32647274     1.07620
O3325       O  0.74514187  0.01508824  0.31561646    -0.81970
O3326       O  0.75378593  0.61134255  0.32938102    -0.82050
O3327       O  0.75963938  0.59493746  0.29725435    -0.81980
O3328       O  0.76160345  0.56268844  0.35040404    -0.81960
O3329       O  0.78949257  0.61390629  0.35790779    -0.82020
O3330       O  0.77040836  0.54405683  0.28674337    -0.81980
O3331       O  0.77484673  0.99885162  0.33774927    -0.81940
O3332       O  0.78999091  0.64608273  0.31457020    -0.82010
Co3333     Co  0.79947893  0.51942910  0.30553840     1.51530
Co3334     Co  0.80741743  0.59302112  0.33837784     1.51690
Co3335     Co  0.81775755  0.60532124  0.30297124     1.51570
Co3336     Co  0.81510853  0.54212218  0.34021371     1.51470
O3337       O  0.81236933  0.56427528  0.31873356    -1.43910
C3338       C  0.74444335  0.99671247  0.32780385     1.07650
C3339       C  0.75769100  0.64097297  0.32290522     1.07740
C3340       C  0.75634680  0.57582417  0.28572661     1.07670
C3341       C  0.76053944  0.59011114  0.35941532     1.07650
O3342       O  0.01946360  0.88395984  0.31876538    -0.81970
O3343       O  0.62011004  0.79893196  0.28976319    -0.81990
O3344       O  0.59957621  0.88343395  0.33372906    -0.82000
O3345       O  0.54342270  0.79748320  0.28805424    -0.81940
O3346       O  0.60879042  0.87437153  0.30805463    -0.82070
O3347       O  0.02408019  0.85118265  0.29397817    -0.81990
O3348       O  0.59566105  0.74352273  0.29598611    -0.81970
O3349       O  0.51635109  0.87682431  0.34305036    -0.82010
C3350       C  0.00431142  0.89358059  0.33123135     1.07720
C3351       C  0.61613712  0.76400903  0.28683034     1.07600
C3352       C  0.61191544  0.89414033  0.32024737     1.07740
C3353       C  0.03731145  0.83013208  0.28410044     1.07620
O3354       O  0.97736442  0.78791830  0.30660258    -0.81970
O3355       O  0.65673463  0.84082671  0.33143672    -0.82050
O3356       O  0.52740139  0.80357370  0.34991541    -0.81980
O3357       O  0.59977320  0.75353201  0.32651832    -0.81960
O3358       O  0.65484633  0.77898663  0.31688221    -0.82020
O3359       O  0.97598158  0.82196162  0.33412769    -0.81980
O3360       O  0.52445930  0.74910150  0.31462456    -0.81940
O3361       O  0.61378767  0.81047627  0.34599104    -0.82010
Co3362     Co  0.00305735  0.83537648  0.31356058     1.51530
Co3363     Co  0.62739817  0.82480439  0.31172674     1.51690
Co3364     Co  0.56519362  0.84149671  0.34208522     1.51570
Co3365     Co  0.57238591  0.77792081  0.30864177     1.51470
O3366       O  0.56246280  0.81963655  0.32041488    -1.43910
C3367       C  0.98690442  0.75674275  0.31142642     1.07650
C3368       C  0.64913936  0.82560204  0.34421074     1.07740
C3369       C  0.98820051  0.80734484  0.34683370     1.07670
C3370       C  0.63934550  0.75393562  0.32475577     1.07650
O3371       O  0.01265437  0.92910108  0.21984315    -0.81970
O3372       O  0.97352160  0.88051336  0.16030488    -0.81990
O3373       O  0.95851855  0.85145926  0.20671159    -0.82000
O3374       O  0.96170563  0.99973681  0.17945915    -0.81940
O3375       O  0.00136864  0.88007519  0.19043496    -0.82070
O3376       O  0.01080997  0.97479474  0.19347752    -0.81990
O3377       O  0.98022909  0.93844946  0.16536394    -0.81970
O3378       O  0.95951149  0.89866839  0.23035642    -0.82010
C3379       C  0.49891740  0.90506186  0.22929230     1.07720
C3380       C  0.49070620  0.91070446  0.15735222     1.07600
C3381       C  0.99446925  0.85422001  0.19959968     1.07740
C3382       C  0.49976987  0.49902058  0.18415510     1.07620
O3383       O  0.92743427  0.50530928  0.20465565    -0.81970
O3384       O  0.91763658  0.85412751  0.18253615    -0.82050
O3385       O  0.88078221  0.93153510  0.22266523    -0.81980
O3386       O  0.90368286  0.96915860  0.15980103    -0.81960
O3387       O  0.89781919  0.91211289  0.16638375    -0.82020
O3388       O  0.93720152  0.96322905  0.22983240    -0.81980
O3389       O  0.88140892  0.47388747  0.19039264    -0.81940
O3390       O  0.87307343  0.88086408  0.19793904    -0.82010
Co3391     Co  0.97197694  0.96622768  0.21096589     1.51530
Co3392     Co  0.95232723  0.89890230  0.17934586     1.51690
Co3393     Co  0.91767190  0.89242766  0.21337515     1.51570
Co3394     Co  0.92821783  0.95373659  0.17880884     1.51470
O3395       O  0.94257238  0.92804688  0.19837619    -1.43910
C3396       C  0.88988788  0.50107347  0.19862899     1.07650
C3397       C  0.88096262  0.85606590  0.18845354     1.07740
C3398       C  0.89796629  0.95651606  0.23086652     1.07670
C3399       C  0.88639966  0.93871144  0.15774315     1.07650
O3400       O  0.72913758  0.69077629  0.22864488    -0.81970
O3401       O  0.71710076  0.63603963  0.15564787    -0.81990
O3402       O  0.71366626  0.59346201  0.19755851    -0.82000
O3403       O  0.71874802  0.74713342  0.17987543    -0.81940
O3404       O  0.75331475  0.62963019  0.18437585    -0.82070
O3405       O  0.75388284  0.73102033  0.20113038    -0.81990
O3406       O  0.73489655  0.68929215  0.16481411    -0.81970
O3407       O  0.73748894  0.63848709  0.21834491    -0.82010
C3408       C  0.74176349  0.65844116  0.22964197     1.07720
C3409       C  0.73965709  0.66440162  0.15466607     1.07600
C3410       C  0.74974336  0.60069992  0.19185836     1.07740
C3411       C  0.75156984  0.74904641  0.18867019     1.07620
O3412       O  0.66752470  0.75779153  0.19974490    -0.81970
O3413       O  0.66169755  0.60673396  0.17809211    -0.82050
O3414       O  0.65256943  0.65560154  0.22836146    -0.81980
O3415       O  0.66060888  0.72096552  0.15694435    -0.81960
O3416       O  0.64393276  0.66656198  0.16506315    -0.82020
O3417       O  0.64361285  0.70794429  0.21846201    -0.81980
O3418       O  0.62725233  0.72322081  0.18600641    -0.81940
O3419       O  0.62699459  0.62054064  0.19952223    -0.82010
Co3420     Co  0.69968764  0.71858469  0.21089211     1.51530
Co3421     Co  0.69937857  0.65058576  0.17588647     1.51690
Co3422     Co  0.68150286  0.63048472  0.20986562     1.51570
Co3423     Co  0.68060601  0.70361386  0.17664190     1.51470
O3424       O  0.69103142  0.67556108  0.19624575    -1.43910
C3425       C  0.63146872  0.75168231  0.19373317     1.07650
C3426       C  0.62866384  0.60445000  0.18659372     1.07740
C3427       C  0.64025167  0.68787076  0.22971720     1.07670
C3428       C  0.63797326  0.69267902  0.15556530     1.07650
O3429       O  0.97161754  0.70112756  0.11240033    -0.81970
O3430       O  0.98323428  0.69147968  0.04741398    -0.81990
O3431       O  0.96906342  0.59910778  0.08356743    -0.82000
O3432       O  0.96508769  0.74423214  0.06389477    -0.81940
O3433       O  0.00249064  0.63198056  0.06639584    -0.82070
O3434       O  0.99508161  0.73579606  0.08643446    -0.81990
O3435       O  0.92495107  0.71793320  0.03919186    -0.81970
O3436       O  0.99268564  0.64799980  0.10492026    -0.82010
C3437       C  0.99860526  0.67630767  0.11265148     1.07720
C3438       C  0.96357917  0.71051646  0.03691093     1.07600
C3439       C  0.00017023  0.60452534  0.07469681     1.07740
C3440       C  0.99593161  0.74965064  0.07322880     1.07620
O3441       O  0.90753706  0.75576371  0.08121712    -0.81970
O3442       O  0.91136078  0.60771662  0.06584863    -0.82050
O3443       O  0.90528128  0.65830268  0.11281509    -0.81980
O3444       O  0.89265883  0.65823162  0.04809426    -0.81960
O3445       O  0.95049945  0.63020926  0.04051099    -0.82020
O3446       O  0.88364957  0.70998806  0.10379813    -0.81980
O3447       O  0.87380375  0.72041594  0.06500984    -0.81940
O3448       O  0.88128761  0.62002436  0.08784934    -0.82010
Co3449     Co  0.93964908  0.72227220  0.09478419     1.51530
Co3450     Co  0.94896208  0.65254713  0.06003945     1.51690
Co3451     Co  0.93687270  0.63451973  0.09599560     1.51570
Co3452     Co  0.92725811  0.69882831  0.05938237     1.51470
O3453       O  0.93840305  0.67731703  0.08070866    -1.43910
C3454       C  0.87625969  0.74906567  0.07248206     1.07650
C3455       C  0.88024580  0.60410435  0.07510696     1.07740
C3456       C  0.87765367  0.68249838  0.11205362     1.07670
C3457       C  0.91181536  0.63766034  0.03814086     1.07650
O3458       O  0.65453249  0.90180344  0.11308946    -0.81970
O3459       O  0.64179296  0.91051148  0.04835503    -0.81990
O3460       O  0.65588939  0.00362894  0.08392793    -0.82000
O3461       O  0.66296982  0.85829195  0.06471605    -0.81940
O3462       O  0.62241443  0.96995872  0.06697644    -0.82070
O3463       O  0.63231981  0.86700458  0.08694069    -0.81990
O3464       O  0.70017582  0.88516095  0.03981567    -0.81970
O3465       O  0.63377898  0.95522534  0.10572941    -0.82010
C3466       C  0.62801582  0.92698233  0.11355024     1.07720
C3467       C  0.66116745  0.89189226  0.03776016     1.07600
C3468       C  0.62457187  0.99761588  0.07512136     1.07740
C3469       C  0.63192118  0.85286141  0.07380941     1.07620
O3470       O  0.72089130  0.84842429  0.08234050    -0.81970
O3471       O  0.71303113  0.99522446  0.06604276    -0.82050
O3472       O  0.72192599  0.94630010  0.11358917    -0.81980
O3473       O  0.73202542  0.94541395  0.04823061    -0.81960
O3474       O  0.67309938  0.97201189  0.04080620    -0.82020
O3475       O  0.74295815  0.89372993  0.10539761    -0.81980
O3476       O  0.75290970  0.88367949  0.06559880    -0.81940
O3477       O  0.74410958  0.98460495  0.08821635    -0.82010
Co3478     Co  0.68745207  0.88119552  0.09568889     1.51530
Co3479     Co  0.67607992  0.95003147  0.06055939     1.51690
Co3480     Co  0.68918233  0.96907702  0.09655252     1.51570
Co3481     Co  0.69890587  0.90447599  0.05998360     1.51470
O3482       O  0.68834593  0.92598660  0.08140051    -1.43910
C3483       C  0.75133144  0.85523320  0.07329889     1.07650
C3484       C  0.74412647  0.00000940  0.07531255     1.07740
C3485       C  0.74860484  0.92122711  0.11369710     1.07670
C3486       C  0.71178040  0.96531779  0.03819414     1.07650
O3487       O  0.57847554  0.75858902  0.97867363    -0.81970
O3488       O  0.53810083  0.83815611  0.90695614    -0.81990
O3489       O  0.49422003  0.84829637  0.95130098    -0.82000
O3490       O  0.49938213  0.74962200  0.93801012    -0.81940
O3491       O  0.53086892  0.87809869  0.93296409    -0.82070
O3492       O  0.54545163  0.73065653  0.95412246    -0.81990
O3493       O  0.49971792  0.79294034  0.91527048    -0.81970
O3494       O  0.51815700  0.78440742  0.97079548    -0.82010
C3495       C  0.53920570  0.76497801  0.98095201     1.07720
C3496       C  0.50399402  0.81960072  0.90654873     1.07600
C3497       C  0.99750848  0.87332593  0.94130536     1.07740
C3498       C  0.50852446  0.72828253  0.94848158     1.07620
O3499       O  0.62790564  0.76026261  0.95091110    -0.81970
O3500       O  0.62342209  0.85876296  0.94009679    -0.82050
O3501       O  0.54358041  0.84699106  0.97942509    -0.81980
O3502       O  0.58671034  0.77539558  0.90636345    -0.81960
O3503       O  0.62453619  0.81867288  0.91661601    -0.82020
O3504       O  0.60381789  0.82196699  0.97119293    -0.81980
O3505       O  0.59236351  0.73184694  0.93183044    -0.81940
O3506       O  0.57642735  0.87766783  0.95555327    -0.82010
Co3507     Co  0.57527044  0.77939042  0.95899230     1.51530
Co3508     Co  0.57860213  0.84623198  0.92518634     1.51690
Co3509     Co  0.54669581  0.82821979  0.95939326     1.51570
Co3510     Co  0.54518731  0.76455968  0.92398710     1.51470
O3511       O  0.56104204  0.80473150  0.93881346    -1.43910
C3512       C  0.62515176  0.73585107  0.94065523     1.07650
C3513       C  0.61342555  0.88059464  0.95015809     1.07740
C3514       C  0.58290811  0.84032792  0.98164067     1.07670
C3515       C  0.62039475  0.79453396  0.90667130     1.07650
O3516       O  0.79869191  0.59698833  0.97898609    -0.81970
O3517       O  0.84814993  0.51588601  0.90958999    -0.81990
O3518       O  0.87256274  0.00554056  0.95154005    -0.82000
O3519       O  0.87773796  0.60515374  0.93623655    -0.81940
O3520       O  0.83418155  0.97542169  0.93427722    -0.82070
O3521       O  0.83931654  0.62270866  0.95520690    -0.81990
O3522       O  0.86168870  0.57407967  0.90937145    -0.81970
O3523       O  0.85607355  0.56790923  0.97118494    -0.82010
C3524       C  0.83695022  0.58790807  0.98146797     1.07720
C3525       C  0.86902682  0.54267059  0.90477996     1.07600
C3526       C  0.86806887  0.97966705  0.94222063     1.07740
C3527       C  0.87460740  0.62348649  0.94818712     1.07620
O3528       O  0.74888229  0.60211460  0.95200183    -0.81970
O3529       O  0.74460351  0.00335962  0.93477272    -0.82050
O3530       O  0.82241276  0.50797047  0.97837472    -0.81980
O3531       O  0.77457074  0.59663977  0.91056943    -0.81960
O3532       O  0.76057495  0.53859557  0.90877482    -0.82020
O3533       O  0.76517529  0.53780174  0.97093633    -0.81980
O3534       O  0.78825565  0.63399311  0.93579657    -0.81940
O3535       O  0.78266669  0.98483808  0.95385867    -0.82010
Co3536     Co  0.80015798  0.57766799  0.95902764     1.51530
Co3537     Co  0.79734469  0.51167133  0.92319209     1.51690
Co3538     Co  0.82126831  0.52924401  0.95867311     1.51570
Co3539     Co  0.82512720  0.59889075  0.92427480     1.51470
O3540       O  0.81093849  0.55446229  0.93785667    -1.43910
C3541       C  0.75384377  0.62889114  0.94318774     1.07650
C3542       C  0.74735459  0.98485054  0.94675534     1.07740
C3543       C  0.78432506  0.51700311  0.98103912     1.07670
C3544       C  0.75335801  0.57077197  0.90511603     1.07650
O3545       O  0.61228040  0.57059506  0.41042075    -0.81970
O3546       O  0.59940963  0.62249735  0.46807850    -0.81990
O3547       O  0.62345953  0.62808195  0.43060411    -0.82000
O3548       O  0.63264710  0.53092945  0.44408505    -0.81940
O3549       O  0.58219137  0.66144338  0.44444153    -0.82070
O3550       O  0.59478526  0.50983442  0.42466542    -0.81990
O3551       O  0.61323834  0.56537945  0.47255110    -0.81970
O3552       O  0.59046114  0.62244537  0.40141782    -0.82010
C3553       C  0.61661021  0.59674754  0.40076913     1.07720
C3554       C  0.61385668  0.59824451  0.47652205     1.07600
C3555       C  0.61842498  0.65588035  0.43862631     1.07740
C3556       C  0.62860173  0.50979125  0.43280424     1.07620
O3557       O  0.50630720  0.53305155  0.43133119    -0.81970
O3558       O  0.49742125  0.62674201  0.44325779    -0.82050
O3559       O  0.51643153  0.58732934  0.41017114    -0.81980
O3560       O  0.53003520  0.53931582  0.46807683    -0.81960
O3561       O  0.51791655  0.59617688  0.47275136    -0.82020
O3562       O  0.53809831  0.53483315  0.40224103    -0.81980
O3563       O  0.54608374  0.49856788  0.44538518    -0.81940
O3564       O  0.53382711  0.64877896  0.42375762    -0.82010
Co3565     Co  0.55791515  0.55349467  0.42190514     1.51530
Co3566     Co  0.54871903  0.62301965  0.45574745     1.51690
Co3567     Co  0.57160575  0.60567507  0.42145029     1.51570
Co3568     Co  0.58112098  0.53715489  0.45618468     1.51470
O3569       O  0.56562425  0.58003167  0.44218717    -1.43910
C3570       C  0.51048647  0.50467512  0.43898428     1.07650
C3571       C  0.50058223  0.64831925  0.43208671     1.07740
C3572       C  0.51131415  0.55992503  0.40122208     1.07670
C3573       C  0.51828102  0.56352466  0.47693462     1.07650
O3574       O  0.86373787  0.78808563  0.40684123    -0.81970
O3575       O  0.80499605  0.87703804  0.47109679    -0.81990
O3576       O  0.87701725  0.88184695  0.42501833    -0.82000
O3577       O  0.87991550  0.78289007  0.44612634    -0.81940
O3578       O  0.84294769  0.89791028  0.44570671    -0.82070
O3579       O  0.84063252  0.74907504  0.43101435    -0.81990
O3580       O  0.86249372  0.84798555  0.46382860    -0.81970
O3581       O  0.85600871  0.84402743  0.39924328    -0.82010
C3582       C  0.87282705  0.81353724  0.39787176     1.07720
C3583       C  0.84349048  0.86906041  0.47375263     1.07600
C3584       C  0.87531573  0.90017890  0.43707530     1.07740
C3585       C  0.87540879  0.75535963  0.43779678     1.07620
O3586       O  0.75384665  0.77469522  0.42710804    -0.81970
O3587       O  0.75246064  0.87707829  0.44445799    -0.82050
O3588       O  0.76952007  0.86162504  0.40384248    -0.81980
O3589       O  0.82973112  0.78889661  0.47267645    -0.81960
O3590       O  0.77123045  0.81593595  0.46474554    -0.82020
O3591       O  0.77718727  0.80370376  0.40008760    -0.81980
O3592       O  0.78709046  0.76284235  0.44863530    -0.81940
O3593       O  0.78884903  0.90664218  0.42670588    -0.82010
Co3594     Co  0.80887093  0.78266307  0.41751790     1.51530
Co3595     Co  0.80514931  0.85422926  0.45156991     1.51690
Co3596     Co  0.82294400  0.87026073  0.41518671     1.51570
Co3597     Co  0.82735905  0.80725482  0.45242852     1.51470
O3598       O  0.81552861  0.82843289  0.43090337    -1.43910
C3599       C  0.75468871  0.75914065  0.43989556     1.07650
C3600       C  0.75560739  0.90237998  0.43476002     1.07740
C3601       C  0.76012296  0.83314813  0.39678865     1.07670
C3602       C  0.79127545  0.79673963  0.47518096     1.07650
O3603       O  0.89894008  0.94046550  0.54158767    -0.81970
O3604       O  0.89174264  0.93196400  0.60200892    -0.81990
O3605       O  0.92091262  0.88465654  0.55675330    -0.82000
O3606       O  0.91855337  0.52964190  0.58092884    -0.81940
O3607       O  0.88109300  0.90035356  0.57555830    -0.82070
O3608       O  0.87982747  0.50066861  0.56324775    -0.81990
O3609       O  0.91372620  0.98768364  0.60555166    -0.81970
O3610       O  0.95770192  0.91478744  0.53302137    -0.82010
C3611       C  0.91874778  0.92207686  0.53083919     1.07720
C3612       C  0.88841506  0.96205528  0.60845562     1.07600
C3613       C  0.88527966  0.88266230  0.56349435     1.07740
C3614       C  0.88450421  0.52578467  0.57298657     1.07620
O3615       O  0.96762276  0.52609013  0.56033664    -0.81970
O3616       O  0.97236649  0.87570376  0.57696699    -0.82050
O3617       O  0.98738197  0.97538570  0.54228533    -0.81980
O3618       O  0.00176269  0.96746701  0.60208726    -0.81960
O3619       O  0.98033760  0.91122013  0.60384275    -0.82020
O3620       O  0.92735858  0.00313424  0.53583374    -0.81980
O3621       O  0.01015775  0.50482842  0.57724016    -0.81940
O3622       O  0.00886617  0.90855726  0.55995800    -0.82010
Co3623     Co  0.93157172  0.47982008  0.55492892     1.51530
Co3624     Co  0.93198244  0.90811171  0.58837997     1.51690
Co3625     Co  0.95624795  0.93199369  0.55344402     1.51570
Co3626     Co  0.96040328  0.49433138  0.59007362     1.51470
O3627       O  0.94530193  0.95292080  0.57508502    -1.43910
C3628       C  0.00449611  0.52570803  0.56626552     1.07650
C3629       C  0.50553036  0.88156502  0.56885697     1.07740
C3630       C  0.96650839  0.99776967  0.53327716     1.07670
C3631       C  0.50564819  0.93642819  0.60757724     1.07650
O3632       O  0.73849237  0.71921219  0.54113444    -0.81970
O3633       O  0.75944982  0.71808872  0.59637951    -0.81990
O3634       O  0.71325933  0.77592175  0.55640528    -0.82000
O3635       O  0.72439653  0.63136187  0.58194504    -0.81940
O3636       O  0.75961219  0.75806397  0.57260923    -0.82070
O3637       O  0.76188381  0.65815025  0.56299197    -0.81990
O3638       O  0.71974768  0.67579724  0.60650984    -0.81970
O3639       O  0.67789925  0.74418296  0.53294039    -0.82010
C3640       C  0.71712210  0.73773133  0.53068913     1.07720
C3641       C  0.75429384  0.69377747  0.60623518     1.07600
C3642       C  0.75041830  0.77868249  0.56189734     1.07740
C3643       C  0.75788249  0.63439554  0.57352315     1.07620
O3644       O  0.67833240  0.62940951  0.55977553    -0.81970
O3645       O  0.66748288  0.77868602  0.57900287    -0.82050
O3646       O  0.65305240  0.68204892  0.54215080    -0.81980
O3647       O  0.63364188  0.69655180  0.59648016    -0.81960
O3648       O  0.67424257  0.73905188  0.60580373    -0.82020
O3649       O  0.71330422  0.65477966  0.53509751    -0.81980
O3650       O  0.63203135  0.65191883  0.57455348    -0.81940
O3651       O  0.63027074  0.74808096  0.56093296    -0.82010
Co3652     Co  0.70986356  0.67752988  0.55420443     1.51530
Co3653     Co  0.71439430  0.74637684  0.58739416     1.51690
Co3654     Co  0.68210107  0.72666746  0.55309109     1.51570
Co3655     Co  0.67802063  0.66581918  0.58879578     1.51470
O3656       O  0.69641811  0.70454055  0.57389912    -1.43910
C3657       C  0.64080978  0.62880568  0.56486757     1.07650
C3658       C  0.63415195  0.77395036  0.57050078     1.07740
C3659       C  0.67378502  0.66028952  0.53287981     1.07670
C3660       C  0.64043103  0.72017722  0.60646198     1.07650
O3661       O  0.89844938  0.71976296  0.65644834    -0.81970
O3662       O  0.90044422  0.71355082  0.71796697    -0.81990
O3663       O  0.92110777  0.62156913  0.68118347    -0.82000
O3664       O  0.92023267  0.76840443  0.70235329    -0.81940
O3665       O  0.88339079  0.65177239  0.69832363    -0.82070
O3666       O  0.88247735  0.75168052  0.68282069    -0.81990
O3667       O  0.95794536  0.74195576  0.72673237    -0.81970
O3668       O  0.91073650  0.66169150  0.65618466    -0.82010
C3669       C  0.89054856  0.68873871  0.65146132     1.07720
C3670       C  0.91914134  0.73327806  0.72861149     1.07600
C3671       C  0.88739702  0.62616658  0.68894711     1.07740
C3672       C  0.88537586  0.76961573  0.69494383     1.07620
O3673       O  0.97251280  0.77832692  0.68320073    -0.81970
O3674       O  0.97213910  0.62929546  0.70144513    -0.82050
O3675       O  0.99898823  0.68324803  0.65716359    -0.81980
O3676       O  0.99075055  0.68259539  0.71854817    -0.81960
O3677       O  0.93223432  0.65342257  0.72558444    -0.82020
O3678       O  0.98647024  0.74124071  0.65754861    -0.81980
O3679       O  0.00971718  0.74665603  0.70010577    -0.81940
O3680       O  0.01186268  0.64795145  0.68294034    -0.82010
Co3681     Co  0.93539624  0.74423381  0.67128185     1.51530
Co3682     Co  0.93505345  0.67462206  0.70589783     1.51690
Co3683     Co  0.96015620  0.65695463  0.67070227     1.51570
Co3684     Co  0.95735403  0.72285936  0.70657235     1.51470
O3685       O  0.94716848  0.69984158  0.68517857    -1.43910
C3686       C  0.50630791  0.77283431  0.69089721     1.07650
C3687       C  0.50767279  0.62862969  0.69460055     1.07740
C3688       C  0.50756221  0.71473728  0.65283362     1.07670
C3689       C  0.47070722  0.66177024  0.72842401     1.07650
O3690       O  0.58482302  0.59428518  0.85997983    -0.81970
O3691       O  0.54798840  0.52348724  0.78612132    -0.81990
O3692       O  0.62420807  0.01242857  0.82638662    -0.82000
O3693       O  0.62696807  0.61113905  0.81646515    -0.81940
O3694       O  0.57842910  0.99275070  0.81035294    -0.82070
O3695       O  0.58963870  0.63877911  0.83497232    -0.81990
O3696       O  0.60659781  0.55039360  0.79545856    -0.81970
O3697       O  0.62365302  0.55231556  0.84978844    -0.82010
C3698       C  0.61917107  0.57650580  0.85961561     1.07720
C3699       C  0.58734060  0.53150471  0.78460748     1.07600
C3700       C  0.61497362  0.99024851  0.81627365     1.07740
C3701       C  0.62322148  0.63515257  0.82675563     1.07620
O3702       O  0.49780196  0.61790963  0.82777563    -0.81970
O3703       O  0.49619668  0.02070624  0.81359062    -0.82050
O3704       O  0.53732843  0.53060021  0.85898960    -0.81980
O3705       O  0.58058028  0.61345092  0.78802501    -0.81960
O3706       O  0.52033917  0.58520232  0.79463409    -0.82020
O3707       O  0.49819098  0.57420867  0.85017861    -0.81980
O3708       O  0.54381230  0.63930922  0.81223196    -0.81940
O3709       O  0.53152454  0.99155818  0.83251184    -0.82010
Co3710     Co  0.54331507  0.60423371  0.84212609     1.51530
Co3711     Co  0.54884205  0.54183634  0.80628531     1.51690
Co3712     Co  0.57848583  0.52387557  0.84089326     1.51570
Co3713     Co  0.57560942  0.59157568  0.80744055     1.51470
O3714       O  0.56074924  0.56508989  0.82722587    -1.43910
C3715       C  0.50673860  0.64043993  0.81774017     1.07650
C3716       C  0.49877061  0.99610685  0.82378940     1.07740
C3717       C  0.50293309  0.54831923  0.85922792     1.07670
C3718       C  0.54178970  0.60588136  0.78502683     1.07650
O3719       O  0.63423153  0.95781692  0.66398494    -0.81970
O3720       O  0.65147897  0.96502055  0.71842208    -0.81990
O3721       O  0.67020214  0.87452956  0.67984089    -0.82000
O3722       O  0.67755423  0.52207977  0.70249895    -0.81940
O3723       O  0.63225818  0.90255559  0.69814191    -0.82070
O3724       O  0.63234962  0.50077289  0.68660923    -0.81990
O3725       O  0.70942993  0.99396819  0.72714595    -0.81970
O3726       O  0.67530045  0.91695905  0.65417793    -0.82010
C3727       C  0.64072520  0.93451363  0.65388380     1.07720
C3728       C  0.67047550  0.98501134  0.72896099     1.07600
C3729       C  0.63652561  0.87819429  0.68801654     1.07740
C3730       C  0.64076535  0.52333734  0.69668015     1.07620
O3731       O  0.72499885  0.52242982  0.68020751    -0.81970
O3732       O  0.71523082  0.87567886  0.70265171    -0.82050
O3733       O  0.76086825  0.93981283  0.66459608    -0.81980
O3734       O  0.73851565  0.93217618  0.71936135    -0.81960
O3735       O  0.67920031  0.90279099  0.72654557    -0.82020
O3736       O  0.71998989  0.98049864  0.65439306    -0.81980
O3737       O  0.76033990  0.49539055  0.69963303    -0.81940
O3738       O  0.76166535  0.89691306  0.68731292    -0.82010
Co3739     Co  0.67858881  0.98845347  0.67238147     1.51530
Co3740     Co  0.68313558  0.92348020  0.70689438     1.51690
Co3741     Co  0.71626951  0.90910038  0.67254775     1.51570
Co3742     Co  0.70851612  0.97402670  0.70727083     1.51470
O3743       O  0.69711212  0.94885625  0.68677019    -1.43910
C3744       C  0.75784979  0.51908034  0.68904331     1.07650
C3745       C  0.75238304  0.87434656  0.69728164     1.07740
C3746       C  0.75449101  0.96290603  0.65437206     1.07670
C3747       C  0.71796072  0.91131704  0.72911463     1.07650
O3748       O  0.77037318  0.77321144  0.85415688    -0.81970
O3749       O  0.81989658  0.86171682  0.78721228    -0.81990
O3750       O  0.74532876  0.86640895  0.83175374    -0.82000
O3751       O  0.74911774  0.76631924  0.81337728    -0.81940
O3752       O  0.78128799  0.88400381  0.81193751    -0.82070
O3753       O  0.78868319  0.73505878  0.82947309    -0.81990
O3754       O  0.76366130  0.83026877  0.79508948    -0.81970
O3755       O  0.76535948  0.83155735  0.85785315    -0.82010
C3756       C  0.75376104  0.79972921  0.86073284     1.07720
C3757       C  0.78153498  0.85199715  0.78508767     1.07600
C3758       C  0.74708332  0.88462476  0.81962282     1.07740
C3759       C  0.75383748  0.74009940  0.82243853     1.07620
O3760       O  0.87710854  0.76389078  0.83066449    -0.81970
O3761       O  0.87170728  0.86457444  0.81375487    -0.82050
O3762       O  0.85292680  0.85400697  0.85493130    -0.81980
O3763       O  0.79906051  0.77233474  0.78639550    -0.81960
O3764       O  0.85574462  0.80266155  0.79453603    -0.82020
O3765       O  0.85758531  0.79535348  0.85756659    -0.81980
O3766       O  0.84037471  0.74785039  0.81059342    -0.81940
O3767       O  0.83450813  0.89481418  0.83086833    -0.82010
Co3768     Co  0.82310825  0.77057136  0.84168474     1.51530
Co3769     Co  0.82011233  0.84027624  0.80692922     1.51690
Co3770     Co  0.79980580  0.85815153  0.84249467     1.51570
Co3771     Co  0.80030727  0.79159850  0.80656361     1.51470
O3772       O  0.81097612  0.81500317  0.82780788    -1.43910
C3773       C  0.87468544  0.74637611  0.81836852     1.07650
C3774       C  0.86793521  0.89054990  0.82294189     1.07740
C3775       C  0.86929077  0.82673372  0.86109422     1.07670
C3776       C  0.83720163  0.78236536  0.78408319     1.07650
C3777       C  0.73591806  0.85882118  0.74524312    -0.15180
C3778       C  0.73787055  0.89607939  0.74285458     0.06970
C3779       C  0.75011538  0.91877273  0.75499858    -0.15180
C3780       C  0.76111352  0.90424399  0.76934878    -0.15180
C3781       C  0.75952390  0.86696225  0.77171981     0.06970
C3782       C  0.74701158  0.84427226  0.75959780    -0.15180
H3783       H  0.72550446  0.84110079  0.73600925     0.10950
H3784       H  0.75011774  0.94764100  0.75348736     0.10950
H3785       H  0.77184719  0.92198445  0.77852714     0.10950
H3786       H  0.74738461  0.81539985  0.76106556     0.10950
C3787       C  0.65087585  0.53031068  0.76737810    -0.15180
C3788       C  0.60959086  0.51860638  0.77074360     0.06970
C3789       C  0.58793067  0.99636277  0.76006137    -0.15180
C3790       C  0.60713959  0.98608336  0.74625557    -0.15180
C3791       C  0.64837760  0.99784373  0.74286850     0.06970
C3792       C  0.67008854  0.52003628  0.75356362    -0.15180
H3793       H  0.66808117  0.54770750  0.77530262     0.10950
H3794       H  0.55586327  0.98700366  0.76230674     0.10950
H3795       H  0.58991730  0.96868755  0.73833727     0.10950
H3796       H  0.70218022  0.52934923  0.75132241     0.10950
C3797       C  0.92252716  0.98002410  0.82408438    -0.15180
C3798       C  0.96507241  0.96948824  0.82444180     0.06970
C3799       C  0.97564678  0.93305469  0.82458098    -0.14700
C3800       C  0.94374325  0.90714157  0.82394845    -0.15180
C3801       C  0.90118280  0.91762052  0.82364699     0.06970
C3802       C  0.89054323  0.95405423  0.82394881    -0.15180
H3803       H  0.91421855  0.50816942  0.82394675     0.10950
H3804       H  0.50857566  0.92473714  0.82469984     0.10950
H3805       H  0.95215930  0.87901842  0.82380998     0.10950
H3806       H  0.85761261  0.96232348  0.82367394     0.10950
C3807       C  0.69904246  0.65144280  0.82667187    -0.15180
C3808       C  0.65662877  0.66203582  0.82772255     0.06970
C3809       C  0.64610779  0.69849908  0.82743300    -0.15180
C3810       C  0.67789531  0.72426183  0.82544877    -0.15180
C3811       C  0.72025535  0.71355278  0.82417377     0.06970
C3812       C  0.73084394  0.67718171  0.82512944    -0.15180
H3813       H  0.70734809  0.62329153  0.82674890     0.10950
H3814       H  0.61324243  0.70685581  0.82798010     0.10950
H3815       H  0.66956770  0.75238345  0.82495494     0.10950
H3816       H  0.76359017  0.66867371  0.82423106     0.10950
C3817       C  0.66927135  0.90046202  0.81952922    -0.15180
C3818       C  0.71152263  0.90943458  0.81565834     0.06970
C3819       C  0.71978316  0.94380089  0.80956793    -0.15180
C3820       C  0.68727186  0.96941098  0.80856161    -0.15180
C3821       C  0.64542505  0.96088680  0.81306492     0.06970
C3822       C  0.63651960  0.92576488  0.81807621    -0.15180
H3823       H  0.66187087  0.87423627  0.82426302     0.10950
H3824       H  0.75195663  0.95169407  0.80660988     0.10950
H3825       H  0.69522525  0.49651889  0.80499623     0.10950
H3826       H  0.60488340  0.91871027  0.82200749     0.10950
C3827       C  0.93146825  0.65818671  0.81264635    -0.15180
C3828       C  0.97460108  0.66834006  0.81390829     0.06970
C3829       C  0.98469067  0.70512648  0.81457056    -0.15180
C3830       C  0.95216232  0.73089918  0.81519109    -0.15180
C3831       C  0.90899801  0.72047616  0.81461614     0.06970
C3832       C  0.89913819  0.68393522  0.81274381    -0.15180
H3833       H  0.92266177  0.63003053  0.81233169     0.10950
H3834       H  0.51748266  0.71375424  0.81584553     0.10950
H3835       H  0.96064799  0.75888083  0.81675652     0.10950
H3836       H  0.86625944  0.67503175  0.81250672     0.10950
C3837       C  0.92001167  0.76771412  0.75333109    -0.15180
C3838       C  0.89721317  0.74682143  0.74242554     0.06970
C3839       C  0.85486791  0.73771467  0.74538862    -0.15180
C3840       C  0.83576308  0.74908979  0.75905732    -0.15180
C3841       C  0.85868154  0.76972834  0.77001839     0.06970
C3842       C  0.90091733  0.77907410  0.76699676    -0.15180
H3843       H  0.95293635  0.77507969  0.75139709     0.10950
H3844       H  0.83670133  0.72159419  0.73724805     0.10950
H3845       H  0.80284676  0.74172163  0.76100767     0.10950
H3846       H  0.91913275  0.79510253  0.77515767     0.10950
C3847       C  0.52927169  0.83571452  0.68871316    -0.15180
C3848       C  0.53999803  0.79939343  0.68986682     0.06970
C3849       C  0.58252765  0.78884608  0.68936820    -0.15180
C3850       C  0.61431473  0.81473735  0.68778216    -0.15180
C3851       C  0.60350347  0.85110917  0.68710564     0.06970
C3852       C  0.56099683  0.86156002  0.68755312    -0.15180
H3853       H  0.99638931  0.84409455  0.68906239     0.10950
H3854       H  0.59096307  0.76077306  0.69007317     0.10950
H3855       H  0.64729240  0.80657381  0.68772479     0.10950
H3856       H  0.55251857  0.88966601  0.68719506     0.10950
C3857       C  0.86106655  0.56703962  0.69672664    -0.15180
C3858       C  0.85492626  0.59871122  0.68840811     0.06970
C3859       C  0.81813225  0.60378266  0.67959676    -0.15180
C3860       C  0.78696553  0.57707137  0.67924468    -0.15180
C3861       C  0.79231801  0.54551823  0.68794891     0.06970
C3862       C  0.82981812  0.54055855  0.69656587    -0.15180
H3863       H  0.88973977  0.56312063  0.70351532     0.10950
H3864       H  0.81347971  0.62840737  0.67316145     0.10950
H3865       H  0.75827513  0.58157329  0.67256148     0.10950
H3866       H  0.83478410  0.51648142  0.70335055     0.10950
C3867       C  0.85824974  0.82920910  0.70452406    -0.15180
C3868       C  0.84997091  0.79427433  0.69911490     0.06970
C3869       C  0.80753416  0.78467303  0.69562058    -0.15180
C3870       C  0.77461360  0.80986772  0.69667827    -0.15180
C3871       C  0.78349394  0.84554208  0.70086578     0.06970
C3872       C  0.82551711  0.85471552  0.70510679    -0.15180
H3873       H  0.89053813  0.83758257  0.70715925     0.10950
H3874       H  0.80011541  0.75799921  0.69138364     0.10950
H3875       H  0.74282897  0.80219977  0.69301531     0.10950
H3876       H  0.83341162  0.88219100  0.70810622     0.10950
C3877       C  0.58536017  0.61335513  0.69676220    -0.15180
C3878       C  0.54243839  0.60313320  0.69874627     0.06970
C3879       C  0.53340998  0.56714476  0.70244346    -0.15180
C3880       C  0.56609223  0.54155493  0.70286694    -0.15180
C3881       C  0.60876612  0.55150887  0.70016832     0.06970
C3882       C  0.61818185  0.58795545  0.69768472    -0.15180
H3883       H  0.59335096  0.64084556  0.69382218     0.10950
H3884       H  0.00077141  0.55828531  0.70385177     0.10950
H3885       H  0.55780068  0.51356857  0.70458338     0.10950
H3886       H  0.65051572  0.59636121  0.69525243     0.10950
C3887       C  0.53055919  0.65797086  0.74759015    -0.15180
C3888       C  0.49034201  0.64679293  0.74252347     0.06970
C3889       C  0.96658875  0.62270840  0.75176919    -0.15180
C3890       C  0.98260836  0.61012954  0.76581769    -0.15180
C3891       C  0.52278582  0.62125994  0.77090157     0.06970
C3892       C  0.54666075  0.64529186  0.76166149    -0.15180
H3893       H  0.54925191  0.67672773  0.74080577     0.10950
H3894       H  0.93524212  0.61363203  0.74820933     0.10950
H3895       H  0.96382597  0.59137233  0.77257110     0.10950
H3896       H  0.57803546  0.65421649  0.76525725     0.10950
C3897       C  0.59747208  0.75283224  0.62729437    -0.15180
C3898       C  0.60930240  0.72148417  0.61934931     0.06970
C3899       C  0.58841900  0.68911360  0.62296742    -0.15180
C3900       C  0.55604688  0.68779128  0.63373089    -0.15180
C3901       C  0.54293582  0.71878569  0.64151246     0.06970
C3902       C  0.56415779  0.75152435  0.63828907    -0.15180
H3903       H  0.61293094  0.77819121  0.62471170     0.10950
H3904       H  0.59684682  0.66429337  0.61727100     0.10950
H3905       H  0.54081493  0.66204253  0.63576141     0.10950
H3906       H  0.55503627  0.77584985  0.64419848     0.10950
C3907       C  0.81947281  0.71718026  0.61887787    -0.15180
C3908       C  0.78922121  0.68928688  0.61773832     0.06970
C3909       C  0.79400707  0.65892163  0.62732721    -0.15180
C3910       C  0.82822577  0.65715346  0.63799039    -0.15180
C3911       C  0.85727526  0.68603734  0.63929765     0.06970
C3912       C  0.85265215  0.71558420  0.62941661    -0.15180
H3913       H  0.81727538  0.74105197  0.61175809     0.10950
H3914       H  0.77149846  0.63684102  0.62660205     0.10950
H3915       H  0.83120838  0.63396312  0.64545455     0.10950
H3916       H  0.87463171  0.73811297  0.62997853     0.10950
C3917       C  0.83038139  0.99657176  0.62258982    -0.15180
C3918       C  0.85453409  0.96529499  0.62026066     0.06970
C3919       C  0.84469121  0.93456119  0.62890446    -0.15180
C3920       C  0.81192408  0.93459379  0.63954395    -0.15180
C3921       C  0.78732288  0.96537228  0.64204559     0.06970
C3922       C  0.79657753  0.99652231  0.63337502    -0.15180
H3923       H  0.83707770  0.02056684  0.61591675     0.10950
H3924       H  0.86258305  0.91008500  0.62745353     0.10950
H3925       H  0.80577959  0.90994802  0.64585041     0.10950
H3926       H  0.77835199  0.02067998  0.63509862     0.10950
C3927       C  0.56419148  0.90091935  0.62175439    -0.15180
C3928       C  0.53994308  0.93223799  0.61943251     0.06970
C3929       C  0.55008994  0.96274331  0.62823535    -0.15180
C3930       C  0.58315094  0.96262564  0.63885055    -0.15180
C3931       C  0.60780649  0.93188460  0.64138603     0.06970
C3932       C  0.59825035  0.90081324  0.63264556    -0.15180
H3933       H  0.55737371  0.87703573  0.61503306     0.10950
H3934       H  0.53216063  0.48727497  0.62694125     0.10950
H3935       H  0.58929494  0.48722963  0.64517376     0.10950
H3936       H  0.61644545  0.87660779  0.63438028     0.10950
C3937       C  0.58154105  0.86428347  0.57060080    -0.15180
C3938       C  0.53871568  0.85437996  0.56904310     0.06970
C3939       C  0.52723485  0.81794280  0.56832385    -0.15180
C3940       C  0.55834661  0.79159439  0.56886534    -0.15180
C3941       C  0.60115750  0.80139104  0.57065144     0.06970
C3942       C  0.61259983  0.83785444  0.57163258    -0.15180
H3943       H  0.59076398  0.89230373  0.57131041     0.10950
H3944       H  0.99418357  0.80993162  0.56713234     0.10950
H3945       H  0.54902675  0.76361561  0.56801847     0.10950
H3946       H  0.64564523  0.84587947  0.57280978     0.10950
C3947       C  0.80907635  0.54392836  0.57501103    -0.15180
C3948       C  0.85211515  0.55340813  0.57405296     0.06970
C3949       C  0.86431371  0.58970858  0.57376252    -0.15180
C3950       C  0.83357163  0.61638117  0.57385970    -0.15180
C3951       C  0.79050017  0.60693425  0.57479457     0.06970
C3952       C  0.77839603  0.57063962  0.57563520    -0.15180
H3953       H  0.79933435  0.51598749  0.57528548     0.10950
H3954       H  0.89754675  0.59734136  0.57293892     0.10950
H3955       H  0.84328658  0.64428431  0.57311602     0.10950
H3956       H  0.74512655  0.56297392  0.57614835     0.10950
C3957       C  0.53195112  0.58692582  0.55841248    -0.15180
C3958       C  0.53973146  0.55075373  0.56184468     0.06970
C3959       C  0.58234070  0.53973385  0.56349767    -0.15180
C3960       C  0.61613319  0.56464374  0.56279808    -0.15180
C3961       C  0.60798426  0.60129270  0.56082045     0.06970
C3962       C  0.56566396  0.61199298  0.55815609    -0.15180
H3963       H  0.49962046  0.59631155  0.55718864     0.10950
H3964       H  0.58935929  0.51199539  0.56615360     0.10950
H3965       H  0.64820444  0.55566768  0.56511387     0.10950
H3966       H  0.55845086  0.64017059  0.55673256     0.10950
C3967       C  0.80736927  0.86827061  0.56110355    -0.15180
C3968       C  0.84988418  0.85795489  0.55870828     0.06970
C3969       C  0.85766556  0.82225759  0.55445571    -0.15180
C3970       C  0.82422047  0.79685484  0.55408014    -0.15180
C3971       C  0.78209070  0.80678490  0.55743491     0.06970
C3972       C  0.77383265  0.84309543  0.56030066    -0.15180
H3973       H  0.80034709  0.89554485  0.56448813     0.10950
H3974       H  0.88996819  0.81332131  0.55274381     0.10950
H3975       H  0.83163174  0.76891086  0.55211512     0.10950
H3976       H  0.74201241  0.85143348  0.56328953     0.10950
C3977       C  0.72812178  0.78527137  0.49211381    -0.15180
C3978       C  0.77158597  0.78221831  0.48934982     0.06970
C3979       C  0.79748134  0.76496977  0.50047080    -0.15180
C3980       C  0.78020431  0.75066605  0.51400617    -0.15180
C3981       C  0.73668836  0.75339610  0.51671530     0.06970
C3982       C  0.71081927  0.77094507  0.50566413    -0.15180
H3983       H  0.70757035  0.79840391  0.48379836     0.10950
H3984       H  0.83139594  0.76247481  0.49874088     0.10950
H3985       H  0.80079826  0.73747888  0.52229076     0.10950
H3986       H  0.67690531  0.77340603  0.50740045     0.10950
C3987       C  0.90402745  0.87227595  0.49280453    -0.15180
C3988       C  0.86408667  0.88393616  0.48788299     0.06970
C3989       C  0.84146607  0.90786872  0.49743696    -0.15180
C3990       C  0.85832776  0.91974172  0.51160295    -0.15180
C3991       C  0.89825939  0.90801969  0.51652662     0.06970
C3992       C  0.92089720  0.88417617  0.50693891    -0.15180
H3993       H  0.92191766  0.85357618  0.48586923     0.10950
H3994       H  0.81030684  0.91726146  0.49403682     0.10950
H3995       H  0.84040908  0.93833260  0.51858185     0.10950
H3996       H  0.95197695  0.87461041  0.51034602     0.10950
C3997       C  0.53144170  0.52204798  0.49868808    -0.15180
C3998       C  0.50857520  0.55161732  0.49277298     0.06970
C3999       C  0.97724342  0.56725428  0.50183000    -0.15180
C4000       C  0.96596383  0.55104716  0.51585593    -0.15180
C4001       C  0.48619513  0.51935478  0.52097620     0.06970
C4002       C  0.52038271  0.50605117  0.51268128    -0.15180
H4003       H  0.55703330  0.51026538  0.49211724     0.10950
H4004       H  0.95999885  0.59041877  0.49769753     0.10950
H4005       H  0.93978477  0.56220843  0.52230987     0.10950
H4006       H  0.53651170  0.98196408  0.51641983     0.10950
C4007       C  0.92619342  0.66615471  0.43348331    -0.15180
C4008       C  0.96853410  0.67586859  0.43082087     0.06970
C4009       C  0.98069495  0.71218771  0.43052629    -0.15180
C4010       C  0.95063827  0.73865180  0.43342206    -0.15180
C4011       C  0.90843221  0.72866810  0.43634248     0.06970
C4012       C  0.89625526  0.69241179  0.43608703    -0.15180
H4013       H  0.91665246  0.63817290  0.43404419     0.10950
H4014       H  0.51366049  0.71988055  0.42889010     0.10950
H4015       H  0.96007717  0.76666497  0.43322866     0.10950
H4016       H  0.86355395  0.68439016  0.43813914     0.10950
C4017       C  0.64873388  0.94600016  0.43096648    -0.15180
C4018       C  0.66069882  0.98234943  0.43085210     0.06970
C4019       C  0.70367478  0.99211427  0.43174425    -0.15180
C4020       C  0.73453225  0.96576855  0.43282618    -0.15180
C4021       C  0.72261422  0.92946700  0.43356735     0.06970
C4022       C  0.67964233  0.91957144  0.43254000    -0.15180
H4023       H  0.61546993  0.93822434  0.43066607     0.10950
H4024       H  0.71318268  0.52012411  0.43196049     0.10950
H4025       H  0.76769196  0.97374697  0.43356147     0.10950
H4026       H  0.67015459  0.89158017  0.43291841     0.10950
C4027       C  0.90711965  0.95776138  0.42914512    -0.15180
C4028       C  0.90735967  0.92846681  0.43929324     0.06970
C4029       C  0.94079389  0.92471265  0.44996601    -0.15180
C4030       C  0.97451447  0.94965479  0.45008349    -0.15180
C4031       C  0.97473966  0.97867094  0.43962448     0.06970
C4032       C  0.94019978  0.98280169  0.42940086    -0.15180
H4033       H  0.88168137  0.96078120  0.42074162     0.10950
H4034       H  0.94152388  0.90193418  0.45776423     0.10950
H4035       H  0.50055090  0.94604226  0.45817443     0.10950
H4036       H  0.93923612  0.50491579  0.42126569     0.10950
C4037       C  0.69618836  0.67102234  0.43913641    -0.15180
C4038       C  0.65380608  0.68195737  0.44081783     0.06970
C4039       C  0.64565011  0.71812118  0.44426154    -0.15180
C4040       C  0.67905078  0.74321141  0.44505867    -0.15180
C4041       C  0.72120700  0.73232070  0.44297772     0.06970
C4042       C  0.72959804  0.69595177  0.44033894    -0.15180
H4043       H  0.70343201  0.64330941  0.43658286     0.10950
H4044       H  0.61330917  0.72730408  0.44560780     0.10950
H4045       H  0.67190865  0.77132180  0.44670525     0.10950
H4046       H  0.76183690  0.68721997  0.43827210     0.10950
C4047       C  0.60652769  0.64048043  0.49827662    -0.15180
C4048       C  0.62720449  0.61026900  0.49202019     0.06970
C4049       C  0.65857998  0.59318041  0.50071923    -0.15180
C4050       C  0.67176417  0.60828077  0.51479124    -0.15180
C4051       C  0.65313316  0.64012446  0.52035368     0.06970
C4052       C  0.61927868  0.65520118  0.51232648    -0.15180
H4053       H  0.58088112  0.65346137  0.49206461     0.10950
H4054       H  0.67408518  0.56946295  0.49634974     0.10950
H4055       H  0.69781279  0.59594681  0.52101520     0.10950
H4056       H  0.60452308  0.67958362  0.51638189     0.10950
C4057       C  0.89866132  0.56150961  0.87977158    -0.15180
C4058       C  0.90148404  0.53871825  0.89257990     0.06970
C4059       C  0.93673030  0.51579229  0.89392593    -0.15180
C4060       C  0.96980767  0.51737953  0.88288929    -0.15180
C4061       C  0.96748614  0.54155350  0.87034283     0.06970
C4062       C  0.93068022  0.56262783  0.86878480    -0.15180
H4063       H  0.87175633  0.57924065  0.87841547     0.10950
H4064       H  0.93959725  0.49806925  0.90381879     0.10950
H4065       H  0.49754399  0.50074184  0.88443606     0.10950
H4066       H  0.92695697  0.58127467  0.85925309     0.10950
C4067       C  0.68513985  0.59937760  0.89574769    -0.15180
C4068       C  0.72062156  0.57735278  0.89322681     0.06970
C4069       C  0.72400373  0.55889209  0.87926569    -0.15180
C4070       C  0.69209584  0.56105723  0.86818451    -0.15180
C4071       C  0.65486159  0.58092070  0.87086751     0.06970
C4072       C  0.65208802  0.60091132  0.88464198    -0.15180
H4073       H  0.68212579  0.61391079  0.90652666     0.10950
H4074       H  0.75127287  0.54212475  0.87702272     0.10950
H4075       H  0.69614082  0.54572370  0.85765698     0.10950
H4076       H  0.62400194  0.61647786  0.88705454     0.10950
C4077       C  0.69021597  0.81551262  0.89667033    -0.15180
C4078       C  0.65547760  0.79156103  0.89519170     0.06970
C4079       C  0.65474793  0.76779343  0.88251485    -0.15180
C4080       C  0.68756081  0.76899514  0.87139464    -0.15180
C4081       C  0.72085815  0.79441390  0.87273387     0.06970
C4082       C  0.72194435  0.81712490  0.88559405    -0.15180
H4083       H  0.69259994  0.83410633  0.90626807     0.10950
H4084       H  0.62859556  0.74901998  0.88102889     0.10950
H4085       H  0.68609207  0.75116842  0.86150962     0.10950
H4086       H  0.74742255  0.83662255  0.88703710     0.10950
C4087       C  0.93091299  0.80598676  0.89716544    -0.15180
C4088       C  0.96833042  0.82668081  0.89557095     0.06970
C4089       C  0.97106693  0.85103953  0.88310738    -0.15180
C4090       C  0.93781640  0.85300449  0.87208336    -0.15180
C4091       C  0.90194708  0.83030678  0.87337644     0.06970
C4092       C  0.89860393  0.80753303  0.88619951    -0.15180
H4093       H  0.92693708  0.78735558  0.90669717     0.10950
H4094       H  0.49930096  0.86745790  0.88158611     0.10950
H4095       H  0.94103538  0.87077812  0.86221723     0.10950
H4096       H  0.87110808  0.79010080  0.88756930     0.10950
C4097       C  0.97516491  0.93666705  0.93990042    -0.15180
C4098       C  0.96404761  0.90014855  0.94053086     0.06970
C4099       C  0.92121472  0.88983860  0.94142533    -0.15180
C4100       C  0.88971695  0.91591178  0.94159932    -0.15180
C4101       C  0.90096563  0.95242011  0.94142893     0.06970
C4102       C  0.94377863  0.96271833  0.94059600    -0.15180
H4103       H  0.50821374  0.94501620  0.93938992     0.10950
H4104       H  0.91225570  0.86173864  0.94197158     0.10950
H4105       H  0.85666979  0.90765680  0.94229066     0.10950
H4106       H  0.95280587  0.99083151  0.94037683     0.10950
C4107       C  0.70091814  0.71868866  0.94320051    -0.15180
C4108       C  0.65857648  0.70888836  0.94018841     0.06970
C4109       C  0.64770510  0.67259041  0.93808583    -0.15180
C4110       C  0.67872157  0.64626381  0.93938675    -0.15180
C4111       C  0.72101347  0.65616187  0.94230265     0.06970
C4112       C  0.73212796  0.69245927  0.94398814    -0.15180
H4113       H  0.70974291  0.74655208  0.94495128     0.10950
H4114       H  0.61501205  0.66452827  0.93597700     0.10950
H4115       H  0.66989167  0.61830291  0.93794698     0.10950
H4116       H  0.76480150  0.70037567  0.94624440     0.10950
C4117       C  0.93499780  0.70996001  0.95628783    -0.15180
C4118       C  0.97699785  0.70013778  0.95278673     0.06970
C4119       C  0.98568811  0.66381582  0.95014859    -0.15180
C4120       C  0.95247686  0.63835103  0.94972143    -0.15180
C4121       C  0.91005595  0.64850485  0.95233424     0.06970
C4122       C  0.90195582  0.68430125  0.95632751    -0.15180
H4123       H  0.92739668  0.73790768  0.95814967     0.10950
H4124       H  0.51754062  0.65562961  0.94712691     0.10950
H4125       H  0.95962588  0.61097259  0.94653704     0.10950
H4126       H  0.86963586  0.69302352  0.95820474     0.10950
C4127       C  0.63589834  0.94475364  0.94811343    -0.15180
C4128       C  0.64362333  0.91016903  0.95383287     0.06970
C4129       C  0.68477088  0.90202271  0.95918959    -0.15180
C4130       C  0.71802969  0.92735875  0.95812245    -0.15180
C4131       C  0.71109198  0.96092500  0.95116025     0.06970
C4132       C  0.66932654  0.96974752  0.94666471    -0.15180
H4133       H  0.60482007  0.95141592  0.94353523     0.10950
H4134       H  0.69173782  0.87524642  0.96332148     0.10950
H4135       H  0.74977799  0.91967872  0.96163431     0.10950
H4136       H  0.66291833  0.99543431  0.94130108     0.10950
C4137       C  0.70765930  0.00268388  0.01417213    -0.15180
C4138       C  0.73136527  0.98000521  0.02402058     0.06970
C4139       C  0.77171349  0.96915337  0.01941161    -0.15180
C4140       C  0.78799698  0.98058230  0.00522539    -0.15180
C4141       C  0.76436131  0.50322255  0.99533560     0.06970
C4142       C  0.72403607  0.51423847  0.99996452    -0.15180
H4143       H  0.67613465  0.01131891  0.01738326     0.10950
H4144       H  0.79038205  0.95140601  0.02663175     0.10950
H4145       H  0.81947214  0.97173434  0.00206256     0.10950
H4146       H  0.70540494  0.53192260  0.99270674     0.10950
C4147       C  0.66493029  0.86110026  0.01231062    -0.15180
C4148       C  0.64022409  0.87810247  0.02369406     0.06970
C4149       C  0.59687758  0.88315493  0.02100017    -0.15180
C4150       C  0.57854894  0.87129635  0.00715407    -0.15180
C4151       C  0.60331963  0.85429544  0.99577920     0.06970
C4152       C  0.64664911  0.84929772  0.99848826    -0.15180
H4153       H  0.69869410  0.85711271  0.01400446     0.10950
H4154       H  0.57728180  0.89629405  0.02952676     0.10950
H4155       H  0.54479367  0.87523957  0.00542437     0.10950
H4156       H  0.66634480  0.83619309  0.98998243     0.10950
C4157       C  0.91191865  0.59713987  0.01531787    -0.15180
C4158       C  0.89097114  0.62310912  0.02428726     0.06970
C4159       C  0.85306509  0.63782064  0.01888963    -0.15180
C4160       C  0.83651651  0.62700570  0.00466459    -0.15180
C4161       C  0.85750525  0.60117075  0.99563536     0.06970
C4162       C  0.89529805  0.58625155  0.00107108    -0.15180
H4163       H  0.94151775  0.58549687  0.01923153     0.10950
H4164       H  0.83683507  0.65826849  0.02544819     0.10950
H4165       H  0.80706184  0.63891523  0.00075859     0.10950
H4166       H  0.91157941  0.56594585  0.99445161     0.10950
C4167       C  0.51925984  0.54112833  0.07347978    -0.15180
C4168       C  0.53180837  0.57727273  0.07332584     0.06970
C4169       C  0.57464203  0.58714268  0.07257397    -0.15180
C4170       C  0.60520773  0.56071879  0.07289388    -0.15180
C4171       C  0.59269042  0.52461190  0.07352502     0.06970
C4172       C  0.54982291  0.51467193  0.07335992    -0.15180
H4173       H  0.98595156  0.53350734  0.07388691     0.10950
H4174       H  0.58432078  0.61511250  0.07242278     0.10950
H4175       H  0.63853538  0.56835491  0.07285384     0.10950
H4176       H  0.54020173  0.98670478  0.07381607     0.10950
C4177       C  0.85656245  0.81217840  0.07009328    -0.15180
C4178       C  0.84432655  0.77596624  0.07047640     0.06970
C4179       C  0.80150853  0.76585397  0.07017422    -0.15180
C4180       C  0.77077468  0.79214422  0.07064880    -0.15180
C4181       C  0.78306492  0.82834803  0.07101089     0.06970
C4182       C  0.82580195  0.83847293  0.07015150    -0.15180
H4183       H  0.88983058  0.81999907  0.07016099     0.10950
H4184       H  0.79203518  0.73783972  0.07044796     0.10950
H4185       H  0.73753723  0.78431602  0.07111241     0.10950
H4186       H  0.83530094  0.86648168  0.07037265     0.10950
C4187       C  0.85244894  0.54252837  0.06825657    -0.15180
C4188       C  0.84467021  0.57854615  0.07206756     0.06970
C4189       C  0.80270697  0.58887527  0.07520160    -0.15180
C4190       C  0.76943119  0.56357988  0.07505653    -0.15180
C4191       C  0.77756344  0.52725675  0.07216425     0.06970
C4192       C  0.81924093  0.51696778  0.06854721    -0.15180
H4193       H  0.88459351  0.53375420  0.06606160     0.10950
H4194       H  0.79593953  0.61637367  0.07831338     0.10950
H4195       H  0.73768563  0.57202355  0.07809853     0.10950
H4196       H  0.82631883  0.98898866  0.06651435     0.10950
C4197       C  0.52193028  0.81240031  0.06870585    -0.15180
C4198       C  0.53054600  0.77555344  0.06972115     0.06970
C4199       C  0.57310028  0.76442406  0.07016838    -0.15180
C4200       C  0.60643626  0.78972895  0.07011883    -0.15180
C4201       C  0.59774350  0.82661791  0.07011198     0.06970
C4202       C  0.55524375  0.83774475  0.06914012    -0.15180
H4203       H  0.98937043  0.82163111  0.06868991     0.10950
H4204       H  0.58045233  0.73618958  0.07123189     0.10950
H4205       H  0.63890448  0.78054852  0.07116650     0.10950
H4206       H  0.54780372  0.86605475  0.06937548     0.10950
C4207       C  0.95864107  0.74250746  0.01168012    -0.15180
C4208       C  0.98375456  0.72435626  0.02273731     0.06970
C4209       C  0.52669969  0.71864663  0.01967665    -0.15180
C4210       C  0.54429810  0.73123265  0.00586463    -0.15180
C4211       C  0.51921132  0.74967057  0.99488141     0.06970
C4212       C  0.97619709  0.75505447  0.99789593    -0.15180
H4213       H  0.92513651  0.74702109  0.01363738     0.10950
H4214       H  0.54658638  0.70459107  0.02792147     0.10950
H4215       H  0.57781978  0.72686736  0.00389268     0.10950
H4216       H  0.95625103  0.76920190  0.98969837     0.10950
C4217       C  0.58816656  0.65458831  0.14017581    -0.15180
C4218       C  0.60397936  0.68903756  0.14385401     0.06970
C4219       C  0.58619993  0.71909703  0.13662615    -0.15180
C4220       C  0.55213631  0.71479056  0.12630816    -0.15180
C4221       C  0.53597480  0.68034723  0.12284432     0.06970
C4222       C  0.55476910  0.65025653  0.12964625    -0.15180
H4223       H  0.60150892  0.63086871  0.14551753     0.10950
H4224       H  0.59783146  0.74584943  0.13924887     0.10950
H4225       H  0.53826892  0.73840901  0.12106811     0.10950
H4226       H  0.04283253  0.62350526  0.12718407     0.10950
C4227       C  0.78826869  0.70363334  0.13935962    -0.15180
C4228       C  0.77244632  0.66902469  0.14271750     0.06970
C4229       C  0.78934559  0.63937276  0.13502399    -0.15180
C4230       C  0.82298664  0.64409878  0.12472125    -0.15180
C4231       C  0.83959056  0.67858539  0.12171861     0.06970
C4232       C  0.82129715  0.70842193  0.12879961    -0.15180
H4233       H  0.77545107  0.72701397  0.14506042     0.10950
H4234       H  0.77761061  0.61251543  0.13737183     0.10950
H4235       H  0.83648918  0.62071486  0.11924013     0.10950
H4236       H  0.83365616  0.73518104  0.12666232     0.10950
C4237       C  0.83394710  0.96360120  0.13878939    -0.15180
C4238       C  0.85226901  0.93372821  0.14602568     0.06970
C4239       C  0.83744055  0.89913086  0.14202861    -0.15180
C4240       C  0.80463740  0.89462396  0.13111116    -0.15180
C4241       C  0.78558711  0.92467999  0.12425978     0.06970
C4242       C  0.80082363  0.95913176  0.12813478    -0.15180
H4243       H  0.84468141  0.99053338  0.14156029     0.10950
H4244       H  0.85108693  0.87555698  0.14737950     0.10950
H4245       H  0.79338384  0.86781950  0.12837152     0.10950
H4246       H  0.78693013  0.98278821  0.12293278     0.10950
C4247       C  0.54293941  0.88451821  0.13870112    -0.15180
C4248       C  0.52408836  0.91466839  0.14541649     0.06970
C4249       C  0.53846030  0.94913078  0.14102511    -0.15180
C4250       C  0.57139181  0.95333720  0.13032704    -0.15180
C4251       C  0.59113129  0.92315976  0.12400868     0.06970
C4252       C  0.57631724  0.88872909  0.12819330    -0.15180
H4253       H  0.03257782  0.85769538  0.14182537     0.10950
H4254       H  0.52449878  0.97294959  0.14597064     0.10950
H4255       H  0.58219370  0.98012539  0.12733938     0.10950
H4256       H  0.59074245  0.86496349  0.12337880     0.10950
C4257       C  0.51962321  0.56320875  0.18401091    -0.15180
C4258       C  0.52995772  0.52766248  0.18047261     0.06970
C4259       C  0.57180406  0.51897332  0.17658985    -0.15180
C4260       C  0.60365124  0.54517816  0.17722999    -0.15180
C4261       C  0.59407129  0.57988541  0.18230277     0.06970
C4262       C  0.55173518  0.58915128  0.18517919    -0.15180
H4263       H  0.98747558  0.57013034  0.18723523     0.10950
H4264       H  0.58016726  0.99152007  0.17395446     0.10950
H4265       H  0.63623486  0.53759178  0.17503274     0.10950
H4266       H  0.54391235  0.61590768  0.18905731     0.10950
C4267       C  0.85955938  0.79213074  0.18579678    -0.15180
C4268       C  0.84856462  0.82851496  0.18538099     0.06970
C4269       C  0.80572033  0.83818343  0.18406758    -0.15180
C4270       C  0.77404764  0.81175567  0.18385532    -0.15180
C4271       C  0.78490133  0.77554990  0.18547609     0.06970
C4272       C  0.82777706  0.76574768  0.18613878    -0.15180
H4273       H  0.89249909  0.78427237  0.18696479     0.10950
H4274       H  0.79677319  0.86617835  0.18376768     0.10950
H4275       H  0.74099958  0.81969671  0.18350851     0.10950
H4276       H  0.83650180  0.73786075  0.18747455     0.10950
C4277       C  0.81343509  0.51696511  0.20139818    -0.15180
C4278       C  0.85580184  0.52855993  0.19954803     0.06970
C4279       C  0.86331529  0.56469780  0.19561980    -0.15180
C4280       C  0.82904826  0.58823085  0.19302279    -0.15180
C4281       C  0.78659436  0.57623826  0.19454234     0.06970
C4282       C  0.77943916  0.54049416  0.19912991    -0.15180
H4283       H  0.80656797  0.98917397  0.20419510     0.10950
H4284       H  0.89550392  0.57422941  0.19375315     0.10950
H4285       H  0.83573471  0.61571213  0.18969319     0.10950
H4286       H  0.74732355  0.53032677  0.20052920     0.10950
C4287       C  0.57089927  0.83759962  0.20168694    -0.15180
C4288       C  0.52816516  0.82647383  0.20058984     0.06970
C4289       C  0.51936238  0.79002138  0.19769857    -0.15180
C4290       C  0.55274257  0.76558686  0.19536289    -0.15180
C4291       C  0.59554972  0.77701845  0.19619427     0.06970
C4292       C  0.60405895  0.81316974  0.19975719    -0.15180
H4293       H  0.57864823  0.86559274  0.20369339     0.10950
H4294       H  0.98676759  0.78082956  0.19645745     0.10950
H4295       H  0.54511189  0.73782707  0.19281669     0.10950
H4296       H  0.63654671  0.82288170  0.20056677     0.10950
C4297       C  0.91575226  0.81637506  0.35739326    -0.15180
C4298       C  0.95639904  0.80151920  0.35920649     0.06970
C4299       C  0.96806537  0.78752426  0.37378260    -0.15180
C4300       C  0.94032439  0.79000098  0.38641359    -0.15180
C4301       C  0.90119869  0.80738059  0.38468308     0.06970
C4302       C  0.88879313  0.81973063  0.37003089    -0.15180
H4303       H  0.90563918  0.82753642  0.34640472     0.10950
H4304       H  0.49925377  0.77613055  0.37558153     0.10950
H4305       H  0.95020594  0.78000312  0.39764450     0.10950
H4306       H  0.85832848  0.83260418  0.36841495     0.10950
C4307       C  0.70558590  0.85767324  0.35934592    -0.15180
C4308       C  0.67861193  0.82779345  0.35734741     0.06970
C4309       C  0.67723941  0.80093700  0.36871807    -0.15180
C4310       C  0.70290753  0.80351445  0.38180872    -0.15180
C4311       C  0.72977496  0.83333150  0.38390337     0.06970
C4312       C  0.73079448  0.86061701  0.37268585    -0.15180
H4313       H  0.70656268  0.87890257  0.35076518     0.10950
H4314       H  0.65650185  0.77775914  0.36741003     0.10950
H4315       H  0.70201462  0.78205710  0.39028730     0.10950
H4316       H  0.75197476  0.88349020  0.37401451     0.10950
C4317       C  0.63724780  0.70945268  0.27246732    -0.15180
C4318       C  0.62811787  0.74658179  0.27220715     0.06970
C4319       C  0.62092619  0.76334049  0.25802212    -0.15180
C4320       C  0.62186992  0.74322060  0.24439347    -0.15180
C4321       C  0.63079278  0.70592642  0.24458564     0.06970
C4322       C  0.63831002  0.68928967  0.25882145    -0.15180
H4323       H  0.64238043  0.69573459  0.28338641     0.10950
H4324       H  0.61275367  0.79147506  0.25751634     0.10950
H4325       H  0.61621565  0.75724335  0.23358841     0.10950
H4326       H  0.64588101  0.66103548  0.25938492     0.10950
C4327       C  0.54381017  0.90193821  0.25316207    -0.15180
C4328       C  0.02608222  0.88447267  0.24030172     0.06970
C4329       C  0.02088536  0.84669958  0.24108793    -0.15180
C4330       C  0.02927855  0.82741396  0.25481336    -0.15180
C4331       C  0.04235154  0.84566483  0.26819078     0.06970
C4332       C  0.55187000  0.88280192  0.26688602    -0.15180
H4333       H  0.54698686  0.93091158  0.25321291     0.10950
H4334       H  0.00594169  0.83245290  0.23160912     0.10950
H4335       H  0.02132391  0.79912909  0.25537421     0.10950
H4336       H  0.56215329  0.89781890  0.27699377     0.10950
C4337       C  0.91634173  0.52240887  0.37843943    -0.15180
C4338       C  0.89914813  0.55385462  0.37200800     0.06970
C4339       C  0.91895347  0.58691172  0.37544556    -0.15180
C4340       C  0.95499601  0.58864793  0.38499131    -0.15180
C4341       C  0.97324154  0.55726192  0.39095688     0.06970
C4342       C  0.95357912  0.52403233  0.38757252    -0.15180
H4343       H  0.90174701  0.49657058  0.37606323     0.10950
H4344       H  0.90643331  0.61163570  0.37073250     0.10950
H4345       H  0.96913054  0.61462341  0.38748651     0.10950
H4346       H  0.96657554  0.49941926  0.39220782     0.10950
C4347       C  0.70479902  0.56185810  0.37568309    -0.15180
C4348       C  0.72470974  0.59339234  0.37036927     0.06970
C4349       C  0.70832048  0.62676068  0.37489281    -0.15180
C4350       C  0.67226863  0.62831946  0.38447222    -0.15180
C4351       C  0.65285317  0.59653133  0.38988418     0.06970
C4352       C  0.66971886  0.56340370  0.38542880    -0.15180
H4353       H  0.71658125  0.53576433  0.37235233     0.10950
H4354       H  0.72277943  0.65144713  0.37078440     0.10950
H4355       H  0.66007236  0.65421049  0.38785894     0.10950
H4356       H  0.65550373  0.53848218  0.38941110     0.10950
C4357       C  0.73567223  0.63133279  0.27150228    -0.15180
C4358       C  0.74888788  0.59510535  0.27094141     0.06970
C4359       C  0.76420196  0.58172776  0.25694668    -0.15180
C4360       C  0.76601404  0.60390411  0.24386669    -0.15180
C4361       C  0.75209983  0.63996785  0.24438280     0.06970
C4362       C  0.73783035  0.65356563  0.25846377    -0.15180
H4363       H  0.72450896  0.64291014  0.28222667     0.10950
H4364       H  0.77576065  0.55451443  0.25620595     0.10950
H4365       H  0.77697918  0.59231753  0.23311394     0.10950
H4366       H  0.72661787  0.68086512  0.25924052     0.10950
C4367       C  0.96767948  0.69287789  0.30934514    -0.15180
C4368       C  0.95554322  0.72776320  0.31335826     0.06970
C4369       C  0.91795611  0.73283394  0.32173734    -0.15180
C4370       C  0.89261032  0.70314400  0.32584988    -0.15180
C4371       C  0.90465749  0.66831144  0.32152709     0.06970
C4372       C  0.94253274  0.66355066  0.31333564    -0.15180
H4373       H  0.49708931  0.68828652  0.30319629     0.10950
H4374       H  0.90888606  0.75945126  0.32540570     0.10950
H4375       H  0.86298645  0.70747703  0.33187550     0.10950
H4376       H  0.95224462  0.63705175  0.30970088     0.10950
C4377       C  0.71571916  0.94159633  0.31675436    -0.15180
C4378       C  0.71207120  0.96856953  0.32797307     0.06970
C4379       C  0.67296354  0.97397014  0.33521961    -0.15180
C4380       C  0.63835297  0.95149651  0.33168869    -0.15180
C4381       C  0.64216857  0.92427448  0.32048797     0.06970
C4382       C  0.68107808  0.91987464  0.31293871    -0.15180
H4383       H  0.74528254  0.93814449  0.31055194     0.10950
H4384       H  0.66905433  0.99585717  0.34331095     0.10950
H4385       H  0.60888504  0.95472473  0.33795046     0.10950
H4386       H  0.68544898  0.89835185  0.30469161     0.10950
C4387       C  0.74089237  0.70464987  0.32773984    -0.15180
C4388       C  0.72680194  0.66927267  0.32589041     0.06970
C4389       C  0.68321728  0.66114754  0.32718048    -0.15180
C4390       C  0.65364875  0.68879488  0.32868156    -0.15180
C4391       C  0.66771507  0.72458365  0.32925234     0.06970
C4392       C  0.71163658  0.73200136  0.32969098    -0.15180
H4393       H  0.77448369  0.71123321  0.32728712     0.10950
H4394       H  0.67195910  0.63371885  0.32606868     0.10950
H4395       H  0.62000793  0.68245839  0.32809812     0.10950
H4396       H  0.72327152  0.75942252  0.33023123     0.10950
C4397       C  0.92635749  0.96651698  0.34075922    -0.15180
C4398       C  0.89711185  0.96292743  0.32841073     0.06970
C4399       C  0.90259640  0.93558492  0.31756222    -0.15180
C4400       C  0.93758149  0.91306195  0.31872285    -0.15180
C4401       C  0.96706514  0.91693484  0.33095379     0.06970
C4402       C  0.96076422  0.94325065  0.34218289    -0.15180
H4403       H  0.92288914  0.98765321  0.34919507     0.10950
H4404       H  0.88071147  0.93239671  0.30792607     0.10950
H4405       H  0.94171978  0.89254094  0.30999435     0.10950
H4406       H  0.48313223  0.94661498  0.35165906     0.10950
C4407       C  0.86586149  0.53660623  0.25497221    -0.15180
C4408       C  0.86563930  0.52138654  0.26986420     0.06970
C4409       C  0.86939003  0.98355052  0.27098227    -0.15180
C4410       C  0.87402598  0.96188010  0.25789280    -0.15180
C4411       C  0.87580203  0.97700159  0.24310460     0.06970
C4412       C  0.87177742  0.51471226  0.24179990    -0.15180
H4413       H  0.86252857  0.56530400  0.25353079     0.10950
H4414       H  0.86904455  0.97022396  0.28213214     0.10950
H4415       H  0.87930739  0.93340436  0.25944940     0.10950
H4416       H  0.87541108  0.52753759  0.23065576     0.10950
loop_ 
_geom_bond_atom_site_label_1 
_geom_bond_atom_site_label_2 
_geom_bond_distance 
_geom_bond_site_symmetry_2 
_ccdc_geom_bond_type 
O1            C9   1.240       .  A
O1          Co21   1.925       .  S
O2           C10   1.289       .  A
O2          Co22   2.065       .  S
O3           C11   1.266       .  A
O3          Co23   1.935       .  S
O4           C12   1.246       .  A
O4        Co1128   1.961       .  S
O5           C11   1.287       .  A
O5          Co22   2.054       .  S
O6           C12   1.266       .  A
O6        Co1125   2.027       .  S
O7           C10   1.277       .  A
O7          Co24   1.948       .  S
O8            C9   1.283       .  A
O8          Co23   2.107       .  S
C9         C1096   1.506       .  S
C10        C1026   1.490       .  S
C11        C1059   1.469       .  S
C12        C1086   1.471       .  S
O13          C26   1.255       .  A
O13       Co1125   1.928       .  S
O14          C27   1.242       .  A
O14         Co22   1.981       .  S
O15          C28   1.228       .  A
O15         Co23   1.928       .  S
O16          C29   1.286       .  A
O16         Co24   2.058       .  S
O17          C29   1.273       .  A
O17         Co22   1.946       .  S
O18          C28   1.270       .  A
O18         Co21   2.075       .  S
O19          C26   1.284       .  A
O19       Co1128   2.052       .  S
O20          C27   1.261       .  A
O20         Co23   2.027       .  S
Co21       O1110   2.027   1_545  S
Co21       O1117   1.928       .  S
Co21         O25   2.060       .  S
Co22         O25   2.015       .  S
Co23         O25   2.052       .  S
Co24       O1108   1.961       .  S
Co24       O1123   2.052   1_545  S
Co24         O25   2.030       .  S
C26        C1066   1.456       .  S
C27        C1076   1.464       .  S
C28        C1046   1.482       .  S
C29        C1036   1.481       .  S
O30          C38   1.234       .  A
O30         Co50   1.931       .  S
O31          C39   1.331       .  A
O31         Co51   2.139       .  S
O32          C40   1.290       .  A
O32         Co52   2.027       .  S
O33        C2249   1.279       .  A
O33         Co53   2.124       .  S
O34          C40   1.288       .  A
O34         Co51   1.967       .  S
O35          C41   1.236       .  A
O35         Co50   1.909       .  S
O36          C39   1.272       .  A
O36         Co53   1.844       .  S
O37        C2246   1.254       .  A
O37         Co52   2.035       .  S
C38        O2245   1.254       .  A
C38        C1089   1.466       .  S
C39        C1006   1.473       .  S
C40        C1069   1.466       .  S
C41        O2241   1.279       .  A
C41        C1019   1.498       .  S
O42          C55   1.271       .  A
O42         Co50   2.028       .  S
O43          C56   1.262       .  A
O43         Co51   2.020       .  S
O44        C2265   1.270   1_455  A
O44         Co52   1.961       .  S
O45          C58   1.255       .  A
O45         Co53   1.987       .  S
O46          C58   1.251       .  A
O46         Co51   1.969       .  S
O47          C57   1.283       .  A
O47         Co50   2.033       .  S
O48        C2263   1.248   1_455  A
O48         Co53   1.916       .  S
O49          C56   1.253       .  A
O49         Co52   1.953       .  S
Co50       O2262   2.048       .  S
Co51         O54   2.187       .  S
Co52         O54   2.043       .  S
Co53         O54   1.888       .  S
O54       Co2258   2.048       .  S
C55        O2256   1.248       .  A
C55        C1056   1.466       .  S
C56         C996   1.463       .  S
C57        O2252   1.270       .  A
C57         C986   1.482       .  S
C58        C1079   1.468       .  S
O59        C2275   1.284       .  A
O59         Co79   2.039       .  S
O60        C2276   1.270       .  A
O60         Co80   1.908       .  S
O61          C69   1.293       .  A
O61         Co81   2.088       .  S
O62        C3382   1.263       .  A
O62         Co82   2.005       .  S
O63          C69   1.264       .  A
O63         Co80   1.947       .  S
O64        C3382   1.258       .  A
O64         Co79   1.971       .  S
O65        C2276   1.291       .  A
O65         Co82   2.095       .  S
O66        C2275   1.265       .  A
O66         Co81   1.978       .  S
C67        O2267   1.284   1_655  A
C67        O2274   1.265       .  A
C67        C3224   1.491   1_655  S
C68        O2268   1.270       .  A
C68        O2273   1.291       .  A
C68         C936   1.482   1_655  S
C69        C3184   1.490       .  S
C70        O3374   1.263       .  A
C70        O3376   1.258   1_655  A
C70         C946   1.458   1_665  S
O71          C84   1.297       .  A
O71       Co1183   2.100   1_545  S
O72          C85   1.267       .  A
O72         Co80   2.005       .  S
O73          C86   1.284       .  A
O73         Co81   2.039       .  S
O74          C87   1.266       .  A
O74         Co82   1.900       .  S
O75          C87   1.292       .  A
O75         Co80   2.105       .  S
O76          C86   1.261       .  A
O76         Co79   1.969       .  S
O77          C84   1.264   1_565  A
O77       Co1186   1.942       .  S
O78          C85   1.263       .  A
O78         Co81   1.976       .  S
Co79       O1175   2.100       .  S
Co79         O83   2.008       .  S
Co80         O83   1.997       .  S
Co81         O83   2.010       .  S
Co82       O1181   1.942       .  S
Co82         O83   1.992       .  S
C84         C966   1.492       .  S
C85         C956   1.464       .  S
C86        C1099   1.485       .  S
C87         C926   1.482       .  S
O88          C96   1.275       .  A
O88        Co108   2.069       .  S
O89          C97   1.271       .  A
O89        Co109   1.917       .  S
O90          C98   1.266       .  A
O90        Co110   2.024       .  S
O91          C99   1.280       .  A
O91        Co111   2.028       .  S
O92          C98   1.260       .  A
O92        Co109   2.009       .  S
O93          C99   1.269       .  A
O93        Co108   1.958       .  S
O94          C97   1.287       .  A
O94        Co111   2.069       .  S
O95          C96   1.233       .  A
O95        Co110   1.925       .  S
C96        C1049   1.482       .  S
C97         C916   1.472       .  S
C98         C969   1.498       .  S
C99         C959   1.461       .  S
O100        C113   1.264       .  A
O100       Co108   2.024       .  S
O101        C114   1.278       .  A
O101       Co109   2.020       .  S
O102        C115   1.272       .  A
O102       Co110   2.071       .  S
O103        C116   1.272       .  A
O103       Co111   1.923       .  S
O104        C116   1.286       .  A
O104       Co109   2.067       .  S
O105        C115   1.230       .  A
O105       Co108   1.923       .  S
O106        C113   1.259       .  A
O106       Co111   2.011       .  S
O107        C114   1.269       .  A
O107       Co110   1.962       .  S
Co108       O112   2.059       .  S
Co109       O112   2.010       .  S
Co110       O112   2.069       .  S
Co111       O112   2.015       .  S
C113        C979   1.495       .  S
C114        C949   1.463       .  S
C115       C1009   1.483       .  S
C116        C906   1.474       .  S
O117        C125   1.261       .  A
O117       Co137   1.985       .  S
O118        C126   1.307       .  A
O118       Co138   2.106       .  S
O119        C127   1.261       .  A
O119       Co139   1.989       .  S
O120        C128   1.273       .  A
O120       Co140   2.096       .  S
O121        C127   1.250       .  A
O121       Co138   1.933       .  S
O122        C128   1.251       .  A
O122       Co137   1.953       .  S
O123        C126   1.266       .  A
O123       Co140   1.883       .  S
O124        C125   1.261       .  A
O124       Co139   1.976       .  S
C125       C3117   1.472       .  S
C126        C896   1.472       .  S
C127       C3064   1.434       .  S
C128       C3094   1.481       .  S
O129        C142   1.260       .  A
O129       Co137   1.989       .  S
O130        C143   1.273       .  A
O130       Co138   2.100       .  S
O131        C144   1.259       .  A
O131       Co139   1.979       .  S
O132        C145   1.306       .  A
O132       Co140   2.095       .  S
O133        C145   1.267       .  A
O133       Co138   1.882       .  S
O134        C144   1.260       .  A
O134       Co137   1.980       .  S
O135        C142   1.250       .  A
O135       Co140   1.936       .  S
O136        C143   1.251       .  A
O136       Co139   1.954       .  S
Co137       O141   2.071       .  S
Co138       O141   2.040       .  S
Co139       O141   2.069       .  S
Co140       O141   2.037       .  S
C142        C866   1.435       .  S
C143        C876   1.486       .  S
C144        C919   1.469       .  S
C145        C846   1.464       .  S
O146        C154   1.262       .  A
O146       Co166   1.988       .  S
O147        C155   1.306       .  A
O147       Co167   2.099       .  S
O148        C156   1.260       .  A
O148       Co168   1.988       .  S
O149        C157   1.271       .  A
O149       Co169   2.092       .  S
O150        C156   1.250       .  A
O150       Co167   1.935       .  S
O151        C157   1.251       .  A
O151       Co166   1.958       .  S
O152        C155   1.267       .  A
O152       Co169   1.886       .  S
O153        C154   1.262       .  A
O153       Co168   1.983       .  S
C154        C939   1.480       .  S
C155        C836   1.470       .  S
C156       C1963   1.433       .  S
C157        C889   1.481       .  S
O158        C171   1.263       .  A
O158       Co166   1.991       .  S
O159        C172   1.272       .  A
O159       Co167   2.091       .  S
O160        C173   1.262       .  A
O160       Co168   1.985       .  S
O161        C174   1.307       .  A
O161       Co169   2.103       .  S
O162        C174   1.266       .  A
O162       Co167   1.893       .  S
O163        C173   1.262       .  A
O163       Co166   1.986       .  S
O164        C171   1.251       .  A
O164       Co169   1.933       .  S
O165        C172   1.252       .  A
O165       Co168   1.958       .  S
Co166       O170   2.074       .  S
Co167       O170   2.045       .  S
Co168       O170   2.072       .  S
Co169       O170   2.046       .  S
C171        C869   1.435       .  S
C172       C1983   1.482       .  S
C173        C929   1.480       .  S
C174        C826   1.475       .  S
O175        C183   1.277       .  A
O175       Co195   1.869       .  S
O176        C184   1.272       .  A
O176       Co196   2.041       .  S
O177       C2393   1.274       .  A
O177       Co197   1.945   1_655  S
O178        C186   1.238   1_655  A
O178       Co198   1.963   1_655  S
O179       C2393   1.287   1_455  A
O179       Co196   2.040       .  S
O180        C186   1.260       .  A
O180       Co195   2.079       .  S
O181        C184   1.252   1_655  A
O181       Co198   1.935   1_655  S
O182        C183   1.316       .  A
O182       Co197   2.102       .  S
C183        C899   1.472       .  S
C184       C2984   1.490   1_455  S
C185       O2385   1.274       .  A
C185       O2387   1.287       .  A
C185        C786   1.459       .  S
C186       C3014   1.485   1_455  S
O187        C200   1.272       .  A
O187       Co195   1.942       .  S
O188        C201   1.235       .  A
O188       Co196   1.959       .  S
O189        C202   1.278       .  A
O189       Co197   1.870       .  S
O190        C203   1.273       .  A
O190       Co198   2.048       .  S
O191        C203   1.250       .  A
O191       Co196   1.932       .  S
O192        C202   1.315       .  A
O192       Co195   2.098       .  S
O193        C200   1.287       .  A
O193       Co198   2.042       .  S
O194        C201   1.260       .  A
O194       Co197   2.086       .  S
Co195       O199   2.030       .  S
Co196       O199   2.017       .  S
Co197       O199   2.036       .  S
Co198       O199   2.028       .  S
C200        C796   1.462       .  S
C201        C816   1.482       .  S
C202        C839   1.470       .  S
C203        C766   1.492       .  S
O204        C212   1.271       .  A
O204       Co224   1.869       .  S
O205        C213   1.261       .  A
O205       Co225   1.994       .  S
O206        C214   1.263       .  A
O206      Co1330   1.950       .  S
O207        C215   1.243       .  A
O207       Co227   1.959       .  S
O208        C214   1.274       .  A
O208      Co1329   2.024       .  S
O209        C215   1.268       .  A
O209       Co224   2.100       .  S
O210        C213   1.260       .  A
O210       Co227   1.968       .  S
O211        C212   1.312       .  A
O211       Co226   2.099       .  S
C212        C849   1.465       .  S
C213        C746   1.479       .  S
C214        C789   1.458       .  S
C215        C809   1.490       .  S
O216        C229   1.263       .  A
O216       Co224   1.953       .  S
O217        C230   1.246       .  A
O217      Co1329   1.964       .  S
O218        C231   1.270       .  A
O218       Co226   1.876       .  S
O219        C232   1.258       .  A
O219       Co227   1.979       .  S
O220        C232   1.262       .  A
O220       Co225   1.974       .  S
O221        C231   1.314       .  A
O221       Co224   2.110       .  S
O222        C229   1.272       .  A
O222       Co227   2.022       .  S
O223        C230   1.267       .  A
O223      Co1330   2.085       .  S
Co224       O228   2.054       .  S
Co225      O1312   2.024   1_545  S
Co225      O1321   1.964       .  S
Co225       O228   2.078       .  S
Co226      O1310   1.950       .  S
Co226      O1327   2.085   1_545  S
Co226       O228   2.053       .  S
Co227       O228   2.074       .  S
C229        C799   1.457       .  S
C230        C819   1.492       .  S
C231        C829   1.477       .  S
C232        C756   1.472       .  S
O233        C241   1.288       .  A
O233       Co253   2.077       .  S
O234        C242   1.248       .  A
O234       Co254   1.914       .  S
O235        C243   1.258       .  A
O235       Co255   1.987       .  S
O236        C244   1.259       .  A
O236       Co256   1.949       .  S
O237        C243   1.267       .  A
O237       Co254   2.023       .  S
O238        C244   1.272       .  A
O238       Co253   2.020       .  S
O239        C242   1.272       .  A
O239       Co256   2.024       .  S
O240        C241   1.270       .  A
O240       Co255   1.932       .  S
C241       C1039   1.482       .  S
C242        C736   1.470       .  S
C243        C726   1.483       .  S
C244       C1810   1.454   1_545  S
O245        C258   1.253       .  A
O245       Co253   1.967       .  S
O246        C259   1.258   1_655  A
O246       Co254   1.943   1_655  S
O247        C260   1.290       .  A
O247       Co255   2.096       .  S
O248        C261   1.243       .  A
O248       Co256   1.914       .  S
O249        C261   1.269       .  A
O249       Co254   2.022       .  S
O250        C260   1.267       .  A
O250       Co253   1.934       .  S
O251        C258   1.269   1_565  A
O251       Co256   2.029   1_565  S
O252        C259   1.273       .  A
O252       Co255   2.017       .  S
Co253       O257   2.025       .  S
Co254       O257   2.061       .  S
Co255       O257   2.037       .  S
Co256       O257   2.062       .  S
C258       C4031   1.479   1_445  S
C259       C2904   1.449   1_455  S
C260       C3237   1.489   1_455  S
C261        C686   1.470       .  S
O262        C270   1.255       .  A
O262       Co282   1.970       .  S
O263        C271   1.270       .  A
O263       Co283   1.889       .  S
O264        C272   1.247       .  A
O264       Co284   1.943       .  S
O265        C273   1.260       .  A
O265       Co285   1.973       .  S
O266        C272   1.267       .  A
O266       Co283   2.071       .  S
O267        C273   1.259       .  A
O267       Co282   1.982       .  S
O268        C271   1.313       .  A
O268       Co285   2.111       .  S
O269        C270   1.264       .  A
O269       Co284   1.992       .  S
C270        C989   1.470       .  S
C271        C676   1.484       .  S
C272        C716   1.464       .  S
C273        C699   1.451       .  S
O274        C287   1.246       .  A
O274       Co282   1.943       .  S
O275        C288   1.263       .  A
O275       Co283   1.966       .  S
O276        C289   1.256       .  A
O276       Co284   1.966       .  S
O277        C290   1.267       .  A
O277       Co285   1.878       .  S
O278        C290   1.312       .  A
O278       Co283   2.109       .  S
O279        C289   1.257       .  A
O279       Co282   1.967       .  S
O280        C287   1.272       .  A
O280       Co285   2.100       .  S
O281        C288   1.268       .  A
O281       Co284   2.005       .  S
Co282       O286   2.070       .  S
Co283       O286   2.057       .  S
Co284       O286   2.077       .  S
Co285       O286   2.051       .  S
C287        C729   1.471       .  S
C288        C709   1.458       .  S
C289        C999   1.463       .  S
C290        C666   1.474       .  S
O291        C299   1.317       .  A
O291      Co1415   2.121       .  S
O292        C300   1.258       .  A
O292       Co312   1.953       .  S
O293        C301   1.268       .  A
O293       Co313   2.097       .  S
O294        C302   1.276       .  A
O294       Co314   2.026   1_545  S
O295        C301   1.242       .  A
O295       Co312   1.962       .  S
O296        C302   1.266       .  A
O296       Co311   1.951   1_545  S
O297        C300   1.264       .  A
O297      Co1418   2.004       .  S
O298        C299   1.271       .  A
O298       Co313   1.878       .  S
C299        C679   1.485       .  S
C300        C606   1.485       .  S
C301        C656   1.496       .  S
C302        C636   1.458       .  S
O303        C316   1.266       .  A
O303       Co311   2.107   1_545  S
O304       C2525   1.277       .  A
O304       Co312   2.022       .  S
O305        C318   1.317       .  A
O305       Co313   2.116       .  S
O306       C2527   1.256       .  A
O306      Co1418   1.944       .  S
O307       C2527   1.267       .  A
O307       Co312   2.022       .  S
O308        C318   1.270       .  A
O308      Co1415   1.867       .  S
O309        C316   1.238       .  A
O309       Co314   1.959   1_545  S
O310       C2525   1.269       .  A
O310       Co313   1.958       .  S
Co311      O1395   2.121       .  S
Co311      O1412   1.867   1_565  S
Co311      O1419   2.053       .  S
Co312       O315   2.066       .  S
Co313       O315   2.057       .  S
Co314      O1401   2.004       .  S
Co314      O1410   1.944       .  S
Co314      O1419   2.066       .  S
O315      Co1415   2.053       .  S
O315      Co1418   2.066       .  S
C316       C2854   1.494       .  S
C317       O2512   1.277   1_455  A
C317       O2518   1.269       .  A
C317        C626   1.461       .  S
C318       C4001   1.468       .  S
C319       O2514   1.256       .  A
C319       O2515   1.267   1_455  A
C319        C616   1.493       .  S
O320        C328   1.320       .  A
O320       Co340   2.116       .  S
O321        C329   1.252       .  A
O321       Co341   1.933       .  S
O322        C330   1.263       .  A
O322       Co342   2.092       .  S
O323        C331   1.287       .  A
O323       Co343   2.043       .  S
O324        C330   1.236       .  A
O324       Co341   1.962       .  S
O325        C331   1.274       .  A
O325       Co340   1.945       .  S
O326        C329   1.272       .  A
O326       Co343   2.043       .  S
O327        C328   1.276       .  A
O327       Co342   1.862       .  S
C328        C669   1.475       .  S
C329        C596   1.488       .  S
C330        C659   1.491       .  S
C331        C639   1.459       .  S
O332        C345   1.262       .  A
O332       Co340   2.098       .  S
O333        C346   1.288       .  A
O333       Co341   2.042       .  S
O334        C347   1.319       .  A
O334       Co342   2.112       .  S
O335        C348   1.249       .  A
O335       Co343   1.934       .  S
O336        C348   1.272       .  A
O336       Co341   2.052       .  S
O337        C347   1.276       .  A
O337       Co340   1.860       .  S
O338        C345   1.235       .  A
O338       Co343   1.961       .  S
O339        C346   1.275       .  A
O339       Co342   1.947       .  S
Co340       O344   2.026       .  S
Co341       O344   2.022       .  S
Co342       O344   2.026       .  S
Co343       O344   2.014       .  S
C345        C649   1.490       .  S
C346        C629   1.464       .  S
C347        C739   1.464       .  S
C348        C586   1.487       .  S
O349        C357   1.256       .  A
O349       Co369   1.948       .  S
O350        C358   1.311       .  A
O350       Co370   2.102       .  S
O351        C359   1.271       .  A
O351       Co371   2.012       .  S
O352        C360   1.268       .  A
O352       Co372   2.099       .  S
O353        C359   1.260       .  A
O353       Co370   1.940       .  S
O354        C360   1.245       .  A
O354       Co369   1.967       .  S
O355        C358   1.272       .  A
O355       Co372   1.881       .  S
O356        C357   1.262       .  A
O356       Co371   2.001       .  S
C357        C599   1.482       .  S
C358        C526   1.473       .  S
C359        C546   1.440       .  S
C360        C556   1.496       .  S
O361       C2582   1.269       .  A
O361       Co369   2.001       .  S
O362       C2583   1.268       .  A
O362       Co370   2.098       .  S
O363       C2584   1.258       .  A
O363       Co371   1.952       .  S
O364       C2585   1.312       .  A
O364       Co372   2.106       .  S
O365       C2585   1.270       .  A
O365       Co370   1.875       .  S
O366       C2584   1.264       .  A
O366       Co369   2.006       .  S
O367       C2582   1.262       .  A
O367       Co372   1.948       .  S
O368       C2583   1.244       .  A
O368       Co371   1.967       .  S
Co369       O373   2.077       .  S
Co370       O373   2.055       .  S
Co371       O373   2.075       .  S
Co372       O373   2.060       .  S
C374       O2569   1.269   1_455  A
C374       O2575   1.262       .  A
C374        C536   1.447       .  S
C375       O2570   1.268   1_455  A
C375       O2576   1.244       .  A
C375        C566   1.497       .  S
C376       O2571   1.258   1_455  A
C376       O2574   1.264   1_455  A
C376        C589   1.492       .  S
C377       O2572   1.312       .  A
C377       O2573   1.270       .  A
C377        C576   1.474       .  S
O378        C386   1.273       .  A
O378       Co398   2.051       .  S
O379        C387   1.279       .  A
O379       Co399   1.871       .  S
O380        C388   1.235       .  A
O380      Co1504   1.963       .  S
O381        C389   1.268       .  A
O381       Co401   1.928       .  S
O382        C388   1.260       .  A
O382      Co1503   2.088       .  S
O383        C389   1.284       .  A
O383       Co398   2.034       .  S
O384        C387   1.315       .  A
O384       Co401   2.102       .  S
O385        C386   1.248       .  A
O385       Co400   1.923       .  S
C386        C759   1.489       .  S
C387        C476   1.473       .  S
C388        C509   1.488       .  S
C389        C496   1.448       .  S
O390        C403   1.237   1_655  A
O390       Co398   1.959   1_655  S
O391        C404   1.273       .  A
O391      Co1503   1.936   1_655  S
O392        C405   1.273       .  A
O392       Co400   2.052       .  S
O393        C406   1.276       .  A
O393       Co401   1.869       .  S
O394        C406   1.316       .  A
O394       Co399   2.107       .  S
O395        C405   1.250   1_655  A
O395       Co398   1.932   1_655  S
O396        C403   1.263       .  A
O396       Co401   2.091       .  S
O397        C404   1.286   1_455  A
O397      Co1504   2.029       .  S
Co398       O402   2.027       .  S
Co399      O1486   2.088   1_545  S
Co399      O1495   1.936   1_455  S
Co399       O402   2.037       .  S
Co400      O1484   1.963       .  S
Co400      O1501   2.029   1_545  S
Co400       O402   2.016       .  S
Co401       O402   2.026       .  S
C403       C2724   1.492   1_455  S
C404       C2694   1.447       .  S
C405       C2957   1.495   1_455  S
C406        C579   1.473       .  S
O407        C415   1.250       .  A
O407       Co427   1.934       .  S
O408        C416   1.315       .  A
O408       Co428   2.103       .  S
O409        C417   1.285       .  A
O409       Co429   2.033       .  S
O410        C418   1.261       .  A
O410      Co1534   2.086   1_545  S
O411        C417   1.270       .  A
O411       Co428   1.926       .  S
O412        C418   1.236       .  A
O412      Co1531   1.967   1_545  S
O413        C416   1.278       .  A
O413       Co430   1.871       .  S
O414        C415   1.275       .  A
O414       Co429   2.061       .  S
C415        C619   1.495       .  S
C416        C479   1.473       .  S
C417        C539   1.444       .  S
C418        C569   1.493       .  S
O419        C432   1.289       .  A
O419      Co1531   2.038   1_545  S
O420        C433   1.261       .  A
O420       Co428   2.089       .  S
O421        C434   1.249       .  A
O421       Co429   1.931       .  S
O422        C435   1.314       .  A
O422       Co430   2.103       .  S
O423        C435   1.276       .  A
O423       Co428   1.867       .  S
O424        C434   1.273       .  A
O424       Co427   2.056       .  S
O425        C432   1.272   1_565  A
O425      Co1534   1.927       .  S
O426        C433   1.237       .  A
O426       Co429   1.966       .  S
Co427      O1516   1.967       .  S
Co427      O1523   2.038       .  S
Co427       O431   2.015       .  S
Co428       O431   2.025       .  S
Co429       O431   2.023       .  S
Co430      O1514   2.086       .  S
Co430      O1529   1.927       .  S
Co430       O431   2.033       .  S
C432        C549   1.462       .  S
C433        C559   1.490       .  S
C434        C609   1.489       .  S
C435        C466   1.456       .  S
O436        C444   1.259       .  A
O436       Co456   1.986       .  S
O437        C445   1.270       .  A
O437       Co457   1.879       .  S
O438        C446   1.248       .  A
O438       Co458   1.971       .  S
O439        C447   1.260       .  A
O439       Co459   1.952       .  S
O440        C446   1.268       .  A
O440       Co457   2.092       .  S
O441        C447   1.266       .  A
O441       Co456   2.001       .  S
O442        C445   1.309       .  A
O442       Co459   2.098       .  S
O443        C444   1.262       .  A
O443       Co458   1.977       .  S
C444        C769   1.480       .  S
C445        C469   1.456       .  S
C446        C506   1.496       .  S
C447        C499   1.449       .  S
O448        C461   1.249       .  A
O448       Co456   1.970       .  S
O449        C462   1.259       .  A
O449       Co457   1.941       .  S
O450        C463   1.259       .  A
O450       Co458   1.989       .  S
O451        C464   1.271       .  A
O451       Co459   1.884       .  S
O452        C464   1.310       .  A
O452       Co457   2.100       .  S
O453        C463   1.260       .  A
O453       Co456   1.970       .  S
O454        C461   1.270       .  A
O454       Co459   2.097       .  S
O455        C462   1.269       .  A
O455       Co458   2.012       .  S
Co456       O460   2.079       .  S
Co457       O460   2.053       .  S
Co458       O460   2.082       .  S
Co459       O460   2.057       .  S
C461        C519   1.492       .  S
C462        C489   1.448       .  S
C463        C779   1.478       .  S
C464        C529   1.473       .  S
C465        C466   1.404       .  A
C465        C470   1.396       .  A
C465        H471   1.083       .  S
C466        C467   1.398       .  A
C467        C468   1.395       .  A
C467        H472   1.083       .  S
C468        C469   1.404       .  A
C468        H473   1.083       .  S
C469        C470   1.399       .  A
C470        H474   1.083       .  S
C475        C476   1.399       .  A
C475        C480   1.395       .  A
C475        H481   1.083       .  S
C476       C1581   1.410   1_545  A
C477        C478   1.395       .  A
C477       C1580   1.410       .  A
C477        H482   1.083       .  S
C478        C479   1.398       .  A
C478        H483   1.083       .  S
C479       C1584   1.410       .  A
C480       C1583   1.410   1_545  A
C480        H484   1.083       .  S
C485        C486   1.399       .  A
C485        C490   1.390       .  A
C485       H1595   1.083       .  S
C486       C2612   1.447       .  S
C486        C487   1.401       .  A
C487        C488   1.388       .  A
C487       H2700   1.084       .  S
C488        C489   1.399       .  A
C488        H493   1.083       .  S
C489        C490   1.401       .  A
C490        H494   1.084       .  S
H491       C1589   1.083   1_545  S
H492       C2695   1.084   1_455  S
C495        C496   1.399       .  A
C495        C500   1.387       .  A
C495        H501   1.083       .  S
C496        C497   1.401       .  A
C497        C498   1.391       .  A
C497        H502   1.084       .  S
C498        C499   1.400       .  A
C498        H503   1.083       .  S
C499        C500   1.401       .  A
C500        H504   1.084       .  S
C505        C506   1.410       .  A
C505        C510   1.408       .  A
C505        H511   1.083       .  S
C506        C507   1.406       .  A
C507        C508   1.408       .  A
C507        H512   1.084       .  S
C508        C509   1.408       .  A
C508       H1617   1.083       .  S
C509        C510   1.404       .  A
C510        H514   1.084       .  S
H513       C1612   1.083       .  S
C515        C516   1.410       .  A
C515        C520   1.405       .  A
C515        H521   1.083       .  S
C516       C2611   1.492       .  S
C516        C517   1.405       .  A
C517        C518   1.411       .  A
C517       H2730   1.083       .  S
C518        C519   1.410       .  A
C518        H523   1.082       .  S
C519        C520   1.403       .  A
C520        H524   1.084       .  S
H522       C2725   1.083   1_455  S
C525        C526   1.412       .  A
C525        C530   1.395       .  A
C525        H531   1.083       .  S
C526        C527   1.397       .  A
C527        C528   1.395       .  A
C527        H532   1.083       .  S
C528        C529   1.412       .  A
C528        H533   1.083       .  S
C529        C530   1.397       .  A
C530        H534   1.083       .  S
C535        C536   1.401       .  A
C535        C540   1.385       .  A
C535       H2749   1.084   1_455  S
C536        C537   1.399       .  A
C537        C538   1.391       .  A
C537        H542   1.083       .  S
C538        C539   1.401       .  A
C538        H543   1.084       .  S
C539        C540   1.397       .  A
C540        H544   1.083       .  S
H541       C2743   1.084       .  S
C545        C546   1.395       .  A
C545        C550   1.387       .  A
C545        H551   1.084       .  S
C546        C547   1.396       .  A
C547        C548   1.391       .  A
C547        H552   1.083       .  S
C548        C549   1.405       .  A
C548        H553   1.083       .  S
C549        C550   1.405       .  A
C550        H554   1.083       .  S
C555        C556   1.405       .  A
C555        C560   1.409       .  A
C555        H561   1.083       .  S
C556        C557   1.411       .  A
C557        C558   1.408       .  A
C557        H562   1.083       .  S
C558        C559   1.403       .  A
C558        H563   1.084       .  S
C559        C560   1.410       .  A
C560        H564   1.083       .  S
C565        C566   1.411       .  A
C565        C570   1.409       .  A
C565        H571   1.083       .  S
C566        C567   1.405       .  A
C567        C568   1.409       .  A
C567       H2780   1.083       .  S
C568        C569   1.411       .  A
C568        H573   1.083       .  S
C569        C570   1.404       .  A
C570        H574   1.084       .  S
H572       C2775   1.083       .  S
C575        C576   1.397   1_455  A
C575        C580   1.397       .  A
C575        H581   1.083       .  S
C576       C2785   1.412       .  A
C577        C578   1.393       .  A
C577       C2784   1.412       .  A
C577        H582   1.083       .  S
C578       C2787   1.396       .  A
C578        H583   1.083       .  S
C579        C580   1.412       .  A
C579       C2786   1.396   1_455  A
C580        H584   1.083       .  S
C585        C586   1.409       .  A
C585        C590   1.418       .  A
C585        H591   1.082       .  S
C586        C587   1.404       .  A
C587        C588   1.383       .  A
C587        H592   1.084       .  S
C588        C589   1.403       .  A
C588        H593   1.083       .  S
C589        C590   1.413       .  A
C590        H594   1.082       .  S
C595        C596   1.406       .  A
C595        C600   1.383       .  A
C595        H601   1.083       .  S
C596        C597   1.410       .  A
C597        C598   1.415       .  A
C597        H602   1.083       .  S
C598        C599   1.410       .  A
C598        H603   1.082       .  S
C599        C600   1.400       .  A
C600        H604   1.084       .  S
C605        C606   1.412       .  A
C605        C610   1.417       .  A
C605        H611   1.083       .  S
C606        C607   1.399       .  A
C607        C608   1.384       .  A
C607        H612   1.084       .  S
C608        C609   1.407       .  A
C608        H613   1.083       .  S
C609        C610   1.409       .  A
C610        H614   1.082       .  S
C615        C616   1.413       .  A
C615        C620   1.422       .  A
C615        H621   1.082       .  S
C616        C617   1.402       .  A
C617        C618   1.383       .  A
C617       H1726   1.084       .  S
C618        C619   1.405       .  A
C618       H1727   1.083       .  S
C619        C620   1.412       .  A
C620        H624   1.082       .  S
H622       C1721   1.084       .  S
H623       C1722   1.083       .  S
C625        C626   1.400       .  A
C625        C630   1.396       .  A
C625        H631   1.083       .  S
C626        C627   1.403       .  A
C627        C628   1.393       .  A
C627       H2840   1.084   1_455  S
C628        C629   1.401       .  A
C628        H633   1.083       .  S
C629        C630   1.405       .  A
C630        H634   1.084       .  S
H632       C2835   1.084       .  S
C635        C636   1.400       .  A
C635        C640   1.394       .  A
C635        H641   1.083       .  S
C636        C637   1.403       .  A
C637        C638   1.393       .  A
C637        H642   1.084       .  S
C638        C639   1.400       .  A
C638        H643   1.083       .  S
C639        C640   1.404       .  A
C640        H644   1.084       .  S
C645        C646   1.403       .  A
C645        C650   1.408       .  A
C645        H651   1.083   1_455  S
C646       C2524   1.494       .  S
C646        C647   1.412       .  A
C647        C648   1.407       .  A
C647        H652   1.083       .  S
C648        C649   1.402       .  A
C648        H653   1.084       .  S
C649        C650   1.411       .  A
C650        H654   1.083       .  S
C655        C656   1.412       .  A
C655        C660   1.407       .  A
C655        H661   1.083       .  S
C656        C657   1.404       .  A
C657        C658   1.410       .  A
C657        H662   1.083       .  S
C658        C659   1.411       .  A
C658        H663   1.083       .  S
C659        C660   1.402       .  A
C660        H664   1.084       .  S
C665        C666   1.395       .  A
C665        C670   1.396       .  A
C665        H671   1.083       .  S
C666        C667   1.414       .  A
C667        C668   1.395       .  A
C667        H672   1.083       .  S
C668        C669   1.395       .  A
C668        H673   1.083       .  S
C669        C670   1.414       .  A
C670        H674   1.083       .  S
C675        C676   1.397       .  A
C675        C680   1.399       .  A
C675        H681   1.083       .  S
C676        C677   1.415       .  A
C677        C678   1.401       .  A
C677        H682   1.083       .  S
C678        C679   1.398       .  A
C678        H683   1.083       .  S
C679        C680   1.415       .  A
C680        H684   1.083       .  S
C685        C686   1.415       .  A
C685        C690   1.391       .  A
C685        H691   1.084       .  S
C686       C2895   1.394   1_455  A
C687        C688   1.398       .  A
C687       C2894   1.394       .  A
C687        H692   1.083       .  S
C688       C2897   1.416       .  A
C688        H693   1.083       .  S
C689       C3630   1.468   1_545  S
C689        C690   1.391   1_655  A
C689       C2896   1.416       .  A
C690       H1798   1.083   1_545  S
H694       C1794   1.083       .  S
C695        C696   1.398       .  A
C695        C700   1.384       .  A
C695        H701   1.083       .  S
C696       C2467   1.449       .  S
C696        C697   1.403       .  A
C697        C698   1.396       .  A
C697       H2910   1.084       .  S
C698        C699   1.400       .  A
C698        H703   1.083       .  S
C699        C700   1.401       .  A
C700        H704   1.084       .  S
H702       C2905   1.084   1_455  S
C705        C706   1.403       .  A
C705        C710   1.396       .  A
C705        H711   1.084       .  S
C706       C1348   1.454       .  S
C706        C707   1.399       .  A
C707        C708   1.390       .  A
C707       H1816   1.083       .  S
C708        C709   1.402       .  A
C708        H713   1.084       .  S
C709        C710   1.401       .  A
C710        H714   1.083       .  S
H712       C1811   1.083   1_545  S
C715        C716   1.399       .  A
C715        C720   1.392       .  A
C715        H721   1.084       .  S
C716        C717   1.403       .  A
C717        C718   1.404       .  A
C717        H722   1.083       .  S
C718        C719   1.408       .  A
C718       H2931   1.083       .  S
C719       C3570   1.479       .  S
C719        C720   1.406       .  A
C720       H1828   1.082       .  S
H723       C2926   1.083   1_455  S
H724       C1824   1.082   1_545  S
C725        C726   1.406       .  A
C725        C730   1.400       .  A
C725        H731   1.083       .  S
C726        C727   1.406       .  A
C727        C728   1.402       .  A
C727        H732   1.083       .  S
C728        C729   1.403       .  A
C728        H733   1.083       .  S
C729        C730   1.402       .  A
C730        H734   1.084       .  S
C735        C736   1.414       .  A
C735        C740   1.388       .  A
C735        H741   1.084       .  S
C736        C737   1.395       .  A
C737        C738   1.399       .  A
C737        H742   1.083       .  S
C738        C739   1.414       .  A
C738        H743   1.083       .  S
C739        C740   1.390       .  A
C740        H744   1.083       .  S
C745        C746   1.396       .  A
C745        C750   1.388       .  A
C745        H751   1.084       .  S
C746        C747   1.410       .  A
C747        C748   1.416       .  A
C747        H752   1.083   1_545  S
C748        C749   1.410       .  A
C748       H2961   1.083       .  S
C749       C2613   1.495       .  S
C749        C750   1.411       .  A
C750        H754   1.083       .  S
H753       C2956   1.083       .  S
C755        C756   1.410       .  A
C755        C760   1.413       .  A
C755        H761   1.082       .  S
C756        C757   1.394       .  A
C757        C758   1.386       .  A
C757        H762   1.084       .  S
C758        C759   1.412       .  A
C758        H763   1.083       .  S
C759        C760   1.408       .  A
C760        H764   1.083       .  S
C765        C766   1.411       .  A
C765        C770   1.387       .  A
C765        H771   1.083       .  S
C766        C767   1.409       .  A
C767        C768   1.414       .  A
C767        H772   1.083       .  S
C768        C769   1.411       .  A
C768        H773   1.083       .  S
C769        C770   1.397       .  A
C770        H774   1.084       .  S
C775        C776   1.409       .  A
C775        C780   1.387       .  A
C775        H781   1.083       .  S
C776       C2392   1.490       .  S
C776        C777   1.409       .  A
C777        C778   1.413       .  A
C777       H2990   1.083       .  S
C778        C779   1.409       .  A
C778        H783   1.083       .  S
C779        C780   1.398       .  A
C780        H784   1.084       .  S
H782       C2985   1.083       .  S
C785        C786   1.403       .  A
C785        C790   1.393       .  A
C785       H2999   1.084       .  S
C786        C787   1.401       .  A
C787        C788   1.394       .  A
C787        H792   1.083       .  S
C788        C789   1.403       .  A
C788        H793   1.084       .  S
C789        C790   1.400       .  A
C790        H794   1.083       .  S
H791       C2993   1.084   1_455  S
C795        C796   1.402       .  A
C795        C800   1.393       .  A
C795        H801   1.083       .  S
C796        C797   1.404       .  A
C797        C798   1.394       .  A
C797        H802   1.084       .  S
C798        C799   1.400       .  A
C798        H803   1.083       .  S
C799        C800   1.402       .  A
C800        H804   1.084       .  S
C805        C806   1.409       .  A
C805        C810   1.406       .  A
C805        H811   1.083       .  S
C806       C2394   1.485       .  S
C806        C807   1.402       .  A
C807        C808   1.406       .  A
C807       H3020   1.084       .  S
C808        C809   1.410       .  A
C808        H813   1.083       .  S
C809        C810   1.404       .  A
C810        H814   1.084       .  S
H812       C3015   1.084   1_455  S
C815        C816   1.402       .  A
C815        C820   1.405       .  A
C815        H821   1.084       .  S
C816        C817   1.408       .  A
C817        C818   1.407       .  A
C817        H822   1.083       .  S
C818        C819   1.405       .  A
C818        H823   1.083       .  S
C819        C820   1.410       .  A
C820        H824   1.083       .  S
C825        C826   1.413       .  A
C825       C1934   1.399   1_554  A
C825        H831   1.083       .  S
C826        C827   1.396       .  A
C827        C828   1.395       .  A
C827        H832   1.083       .  S
C828       C1933   1.413   1_554  A
C828        H833   1.083       .  S
C829        C830   1.398       .  A
C829       C1932   1.413   1_546  A
C830       C1929   1.399   1_556  A
C830        H834   1.083       .  S
C835        C836   1.411       .  A
C835        C840   1.392   1_554  A
C835        H841   1.083       .  S
C836        C837   1.397       .  A
C837        C838   1.395       .  A
C837        H842   1.083       .  S
C838        C839   1.411   1_554  A
C838        H843   1.083       .  S
C839        C840   1.396       .  A
C840        H844   1.083       .  S
C845        C846   1.410       .  A
C845        C850   1.394       .  A
C845        H851   1.083       .  S
C846        C847   1.395       .  A
C847        C848   1.390       .  A
C847        H852   1.083       .  S
C848        C849   1.410   1_554  A
C848        H853   1.083       .  S
C849        C850   1.396   1_556  A
C850        H854   1.083   1_554  S
C855        C856   1.400       .  A
C855        C860   1.383       .  A
C855       H3069   1.084   1_455  S
C856       C2335   1.434       .  S
C856        C857   1.396       .  A
C857        C858   1.383       .  A
C857        H862   1.083       .  S
C858        C859   1.400       .  A
C858        H863   1.084       .  S
C859       C1260   1.433   1_545  S
C859        C860   1.396       .  A
C860       H1968   1.083   1_545  S
H861       C3063   1.084       .  S
H864       C1964   1.083       .  S
C865        C866   1.400       .  A
C865        C870   1.383       .  A
C865        H871   1.084       .  S
C866        C867   1.396       .  A
C867        C868   1.383       .  A
C867        H872   1.083       .  S
C868        C869   1.400       .  A
C868        H873   1.084       .  S
C869        C870   1.396       .  A
C870        H874   1.083       .  S
C875        C876   1.406       .  A
C875        C880   1.408       .  A
C875        H881   1.084       .  S
C876        C877   1.407       .  A
C877        C878   1.403       .  A
C877        H882   1.083       .  S
C878        C879   1.403       .  A
C878        H883   1.084       .  S
C879       C1276   1.482       .  S
C879        C880   1.407       .  A
C880       H1988   1.083   1_545  S
H884       C1984   1.083       .  S
C885        C886   1.404       .  A
C885        C890   1.405       .  A
C885       H3099   1.084   1_455  S
C886       C2336   1.481   1_455  S
C886        C887   1.406       .  A
C887        C888   1.404       .  A
C887        H892   1.083       .  S
C888        C889   1.404       .  A
C888        H893   1.084       .  S
C889        C890   1.406       .  A
C890        H894   1.083       .  S
H891       C3093   1.084       .  S
C895        C896   1.412       .  A
C895        C900   1.393   1_554  A
C895        H901   1.083       .  S
C896       C3105   1.397       .  A
C897        C898   1.396       .  A
C897       C3104   1.397   1_455  A
C897        H902   1.083       .  S
C898        C899   1.412   1_554  A
C898        H903   1.083       .  S
C899       C3108   1.396   1_455  A
C900       C3107   1.396       .  A
C900        H904   1.083       .  S
C905        C906   1.409       .  A
C905        C910   1.395       .  A
C905        H911   1.083       .  S
C906        C907   1.401       .  A
C907        C908   1.399       .  A
C907        H912   1.083       .  S
C908        C909   1.408       .  A
C908        H913   1.083       .  S
C909       C2333   1.472   1_455  S
C909        C910   1.399       .  A
C910       H3122   1.083       .  S
H914       C3118   1.083       .  S
C915        C916   1.408       .  A
C915        C920   1.396       .  A
C915        H921   1.083       .  S
C916        C917   1.400       .  A
C917        C918   1.396       .  A
C917        H922   1.083       .  S
C918        C919   1.407       .  A
C918        H923   1.083       .  S
C919        C920   1.399       .  A
C920        H924   1.083       .  S
C925        C926   1.403       .  A
C925        C930   1.396       .  A
C925        H931   1.083       .  S
C926        C927   1.410       .  A
C927        C928   1.403       .  A
C927        H932   1.083       .  S
C928        C929   1.403       .  A
C928        H933   1.083       .  S
C929        C930   1.407       .  A
C930        H934   1.083       .  S
C935        C936   1.403       .  A
C935        C940   1.399       .  A
C935       H3149   1.083       .  S
C936        C937   1.410       .  A
C937        C938   1.399       .  A
C937        H942   1.083       .  S
C938        C939   1.402       .  A
C938        H943   1.083       .  S
C939        C940   1.408       .  A
C940        H944   1.083       .  S
H941       C3143   1.083       .  S
C945        C946   1.401       .  A
C945        C950   1.396       .  A
C945       H3159   1.084   1_455  S
C946        C947   1.401       .  A
C947        C948   1.394       .  A
C947       H2056   1.083   1_545  S
C948        C949   1.402       .  A
C948        H953   1.084       .  S
C949        C950   1.403       .  A
C950        H954   1.083       .  S
H951       C3153   1.084       .  S
H952       C2051   1.083       .  S
C955        C956   1.402       .  A
C955        C960   1.397       .  A
C955        H961   1.084       .  S
C956        C957   1.403       .  A
C957        C958   1.395       .  A
C957        H962   1.083       .  S
C958        C959   1.401       .  A
C958        H963   1.084       .  S
C959        C960   1.402       .  A
C960        H964   1.083       .  S
C965        C966   1.408       .  A
C965        C970   1.402       .  A
C965       H2075   1.083   1_545  S
C966        C967   1.406       .  A
C967        C968   1.413       .  A
C967        H972   1.083       .  S
C968        C969   1.412       .  A
C968        H973   1.082       .  S
C969        C970   1.405       .  A
C970        H974   1.083       .  S
H971       C2069   1.083       .  S
C975        C976   1.407       .  A
C975        C980   1.402       .  A
C975        H981   1.083       .  S
C976       C2277   1.490   1_455  S
C976        C977   1.406       .  A
C977        C978   1.412       .  A
C977       H3190   1.083   1_455  S
C978        C979   1.411       .  A
C978        H983   1.082       .  S
C979        C980   1.405       .  A
C980        H984   1.083       .  S
H982       C3185   1.083       .  S
C985        C986   1.406       .  A
C985        C990   1.392       .  A
C985        H991   1.083       .  S
C986        C987   1.410       .  A
C987        C988   1.404       .  A
C987       H3200   1.083       .  S
C988        C989   1.403       .  A
C988        H993   1.083       .  S
C989        C990   1.400       .  A
C990        H994   1.084       .  S
H992       C3195   1.083       .  S
C995        C996   1.404       .  A
C995       C1000   1.399       .  A
C995       H1001   1.083       .  S
C996        C997   1.401       .  A
C997        C998   1.389       .  A
C997       H1002   1.084       .  S
C998        C999   1.402       .  A
C998       H1003   1.083       .  S
C999       C1000   1.403       .  A
C1000      H1004   1.083       .  S
C1005      C1006   1.416       .  A
C1005      C1010   1.399       .  A
C1005      H1011   1.084       .  S
C1006      C1007   1.392       .  A
C1007      C1008   1.397       .  A
C1007      H1012   1.082       .  S
C1008      C1009   1.420       .  A
C1008      H1013   1.083       .  S
C1009      C1010   1.396       .  A
C1010      H1014   1.082       .  S
C1015      C1020   1.405       .  A
C1015      C3224   1.399       .  A
C1015      H1021   1.083       .  S
C1016      C2275   1.491       .  S
C1016      C1017   1.417       .  A
C1016      C3223   1.399       .  A
C1017      C1018   1.410       .  A
C1017      H1022   1.080       .  S
C1018      C1019   1.399       .  A
C1018      H1023   1.082       .  S
C1019      C3228   1.418       .  A
C1020      C3227   1.418       .  A
C1020      H1024   1.084       .  S
C1025      C1026   1.407       .  A
C1025      C1030   1.410       .  A
C1025      H1031   1.082   1_545  S
C1026      C1027   1.407       .  A
C1027      C1028   1.400       .  A
C1027      H1032   1.083       .  S
C1028      C1029   1.403       .  A
C1028      H1033   1.083       .  S
C1029      C2468   1.489       .  S
C1029      C1030   1.410       .  A
C1030      H1034   1.083   1_545  S
C1035      C1036   1.404       .  A
C1035      C1040   1.393       .  A
C1035      H1041   1.083       .  S
C1036      C1037   1.407       .  A
C1037      C1038   1.409       .  A
C1037      H1042   1.083       .  S
C1038      C1039   1.408       .  A
C1038      H1043   1.083       .  S
C1039      C1040   1.403       .  A
C1040      H1044   1.083       .  S
C1045      C1046   1.417       .  A
C1045      C1050   1.398       .  A
C1045      H1051   1.083       .  S
C1046      C1047   1.397       .  A
C1047      C1048   1.399       .  A
C1047      H1052   1.082       .  S
C1048      C1049   1.418       .  A
C1048      H1053   1.084       .  S
C1049      C1050   1.396       .  A
C1050      H1054   1.082       .  S
C1055      C1056   1.402       .  A
C1055      C1060   1.388       .  A
C1055      H3269   1.084       .  S
C1056      C1057   1.404       .  A
C1057      C1058   1.404       .  A
C1057      H1062   1.083       .  S
C1058      C1059   1.407       .  A
C1058      H1063   1.083       .  S
C1059      C1060   1.402       .  A
C1060      H1064   1.083       .  S
H1061      C3263   1.084       .  S
C1065      C1066   1.403       .  A
C1065      C1070   1.391       .  A
C1065      H1071   1.085       .  S
C1066      C1067   1.400       .  A
C1067      C1068   1.401       .  A
C1067      H1072   1.083       .  S
C1068      C1069   1.409       .  A
C1068      H1073   1.084       .  S
C1069      C1070   1.401       .  A
C1070      H1074   1.083       .  S
C1075      C1076   1.396       .  A
C1075      C1080   1.390       .  A
C1075      H1081   1.084       .  S
C1076      C1077   1.407       .  A
C1077      C1078   1.401       .  A
C1077      H1082   1.083       .  S
C1078      C1079   1.402       .  A
C1078      H1083   1.084       .  S
C1079      C1080   1.408       .  A
C1080      H1084   1.083       .  S
C1085      C1086   1.411       .  A
C1085      C1090   1.398       .  A
C1085      H1091   1.080       .  S
C1086      C1087   1.397       .  A
C1087      C1088   1.393       .  A
C1087      H1092   1.083       .  S
C1088      C1089   1.409       .  A
C1088      H1093   1.083       .  S
C1089      C1090   1.396       .  A
C1090      H3302   1.083       .  S
H1094      C3298   1.083       .  S
C1095      C1096   1.404       .  A
C1095      C1100   1.415       .  A
C1095      H1101   1.082       .  S
C1096      C2201   1.419   1_545  A
C1097      C1098   1.399       .  A
C1097      C2200   1.419       .  A
C1097      H1102   1.083       .  S
C1098      C1099   1.396       .  A
C1098      H1103   1.083       .  S
C1099      C2204   1.416       .  A
C1100      C2203   1.416   1_545  A
C1100      H1104   1.080       .  S
O1105      C1113   1.240       .  A
O1105     Co1125   1.925       .  S
O1106      C1114   1.289       .  A
O1106     Co1126   2.065       .  S
O1107      C1115   1.266       .  A
O1107     Co1127   1.935       .  S
O1108      C1116   1.246   1_545  A
O1109      C1115   1.287       .  A
O1109     Co1126   2.054       .  S
O1110      C1116   1.266       .  A
O1111      C1114   1.277       .  A
O1111     Co1128   1.948       .  S
O1112      C1113   1.283       .  A
O1112     Co1127   2.107       .  S
C1113      C2200   1.506       .  S
C1114      C2130   1.490       .  S
C1115      C2163   1.469       .  S
C1116      C2190   1.471       .  S
O1117      C1130   1.255   1_545  A
O1118      C1131   1.242       .  A
O1118     Co1126   1.981       .  S
O1119      C1132   1.228       .  A
O1119     Co1127   1.928       .  S
O1120      C1133   1.286       .  A
O1120     Co1128   2.058       .  S
O1121      C1133   1.273       .  A
O1121     Co1126   1.946       .  S
O1122      C1132   1.270       .  A
O1122     Co1125   2.075       .  S
O1123      C1130   1.284       .  A
O1124      C1131   1.261       .  A
O1124     Co1127   2.027       .  S
Co1125     O1129   2.060       .  S
Co1126     O1129   2.015       .  S
Co1127     O1129   2.052       .  S
Co1128     O1129   2.030       .  S
C1130      C2170   1.456       .  S
C1131      C2180   1.464       .  S
C1132      C2150   1.482       .  S
C1133      C2140   1.481       .  S
O1134      C1142   1.234       .  A
O1134     Co1154   1.931       .  S
O1135      C1143   1.331       .  A
O1135     Co1155   2.139       .  S
O1136      C1144   1.290       .  A
O1136     Co1156   2.027       .  S
O1137      C3353   1.279       .  A
O1137     Co1157   2.124       .  S
O1138      C1144   1.288       .  A
O1138     Co1155   1.967       .  S
O1139      C1145   1.236       .  A
O1139     Co1154   1.909       .  S
O1140      C1143   1.272       .  A
O1140     Co1157   1.844       .  S
O1141      C3350   1.254       .  A
O1141     Co1156   2.035       .  S
C1142      O3349   1.254       .  A
C1142      C2193   1.466       .  S
C1143      C2110   1.473       .  S
C1144      C2173   1.466       .  S
C1145      O3345   1.279       .  A
C1145      C2123   1.498       .  S
O1146      C1159   1.271       .  A
O1146     Co1154   2.028       .  S
O1147      C1160   1.262       .  A
O1147     Co1155   2.020       .  S
O1148      C3369   1.270   1_455  A
O1148     Co1156   1.961       .  S
O1149      C1162   1.255       .  A
O1149     Co1157   1.987       .  S
O1150      C1162   1.251       .  A
O1150     Co1155   1.969       .  S
O1151      C1161   1.283       .  A
O1151     Co1154   2.033       .  S
O1152      C3367   1.248   1_455  A
O1152     Co1157   1.916       .  S
O1153      C1160   1.253       .  A
O1153     Co1156   1.953       .  S
Co1154     O3366   2.048       .  S
Co1155     O1158   2.187       .  S
Co1156     O1158   2.043       .  S
Co1157     O1158   1.888       .  S
O1158     Co3362   2.048       .  S
C1159      O3360   1.248       .  A
C1159      C2160   1.466       .  S
C1160      C2100   1.463       .  S
C1161      O3356   1.270       .  A
C1161      C2090   1.482       .  S
C1162      C2183   1.468       .  S
O1163      C3379   1.284       .  A
O1163     Co1183   2.039       .  S
O1164      C3380   1.270       .  A
O1164     Co1184   1.908       .  S
O1165      C1173   1.293       .  A
O1165     Co1185   2.088       .  S
O1166      C2278   1.263       .  A
O1166     Co1186   2.005       .  S
O1167      C1173   1.264       .  A
O1167     Co1184   1.947       .  S
O1168      C2278   1.258       .  A
O1168     Co1183   1.971       .  S
O1169      C3380   1.291       .  A
O1169     Co1186   2.095       .  S
O1170      C3379   1.265       .  A
O1170     Co1185   1.978       .  S
C1171      O3371   1.284   1_655  A
C1171      O3378   1.265       .  A
C1171      C4328   1.491   1_655  S
C1172      O3372   1.270       .  A
C1172      O3377   1.291       .  A
C1172      C2040   1.482   1_655  S
C1173      C4288   1.490       .  S
C1174      O2270   1.263       .  A
C1174      O2272   1.258   1_655  A
C1174      C2050   1.458   1_655  S
O1175      C1188   1.297       .  A
O1176      C1189   1.267       .  A
O1176     Co1184   2.005       .  S
O1177      C1190   1.284       .  A
O1177     Co1185   2.039       .  S
O1178      C1191   1.266       .  A
O1178     Co1186   1.900       .  S
O1179      C1191   1.292       .  A
O1179     Co1184   2.105       .  S
O1180      C1190   1.261       .  A
O1180     Co1183   1.969       .  S
O1181      C1188   1.264       .  A
O1182      C1189   1.263       .  A
O1182     Co1185   1.976       .  S
Co1183     O1187   2.008       .  S
Co1184     O1187   1.997       .  S
Co1185     O1187   2.010       .  S
Co1186     O1187   1.992       .  S
C1188      C2070   1.492       .  S
C1189      C2060   1.464       .  S
C1190      C2203   1.485       .  S
C1191      C2030   1.482       .  S
O1192      C1200   1.275       .  A
O1192     Co1212   2.069       .  S
O1193      C1201   1.271       .  A
O1193     Co1213   1.917       .  S
O1194      C1202   1.266       .  A
O1194     Co1214   2.024       .  S
O1195      C1203   1.280       .  A
O1195     Co1215   2.028       .  S
O1196      C1202   1.260       .  A
O1196     Co1213   2.009       .  S
O1197      C1203   1.269       .  A
O1197     Co1212   1.958       .  S
O1198      C1201   1.287       .  A
O1198     Co1215   2.069       .  S
O1199      C1200   1.233       .  A
O1199     Co1214   1.925       .  S
C1200      C2153   1.482       .  S
C1201      C2020   1.472       .  S
C1202      C2073   1.498       .  S
C1203      C2063   1.461       .  S
O1204      C1217   1.264       .  A
O1204     Co1212   2.024       .  S
O1205      C1218   1.278       .  A
O1205     Co1213   2.020       .  S
O1206      C1219   1.272       .  A
O1206     Co1214   2.071       .  S
O1207      C1220   1.272       .  A
O1207     Co1215   1.923       .  S
O1208      C1220   1.286       .  A
O1208     Co1213   2.067       .  S
O1209      C1219   1.230       .  A
O1209     Co1212   1.923       .  S
O1210      C1217   1.259       .  A
O1210     Co1215   2.011       .  S
O1211      C1218   1.269       .  A
O1211     Co1214   1.962       .  S
Co1212     O1216   2.059       .  S
Co1213     O1216   2.010       .  S
Co1214     O1216   2.069       .  S
Co1215     O1216   2.015       .  S
C1217      C2083   1.495       .  S
C1218      C2053   1.463       .  S
C1219      C2113   1.483       .  S
C1220      C2010   1.474       .  S
O1221      C1229   1.261       .  A
O1221     Co1241   1.985       .  S
O1222      C1230   1.307       .  A
O1222     Co1242   2.106       .  S
O1223      C1231   1.261       .  A
O1223     Co1243   1.989       .  S
O1224      C1232   1.273       .  A
O1224     Co1244   2.096       .  S
O1225      C1231   1.250       .  A
O1225     Co1242   1.933       .  S
O1226      C1232   1.251       .  A
O1226     Co1241   1.953       .  S
O1227      C1230   1.266       .  A
O1227     Co1244   1.883       .  S
O1228      C1229   1.261       .  A
O1228     Co1243   1.976       .  S
C1229      C4221   1.472       .  S
C1230      C2000   1.472       .  S
C1231      C4168   1.434       .  S
C1232      C4198   1.481       .  S
O1233      C1246   1.260       .  A
O1233     Co1241   1.989       .  S
O1234      C1247   1.273       .  A
O1234     Co1242   2.100       .  S
O1235      C1248   1.259       .  A
O1235     Co1243   1.979       .  S
O1236      C1249   1.306       .  A
O1236     Co1244   2.095       .  S
O1237      C1249   1.267       .  A
O1237     Co1242   1.882       .  S
O1238      C1248   1.260       .  A
O1238     Co1241   1.980       .  S
O1239      C1246   1.250       .  A
O1239     Co1244   1.936       .  S
O1240      C1247   1.251       .  A
O1240     Co1243   1.954       .  S
Co1241     O1245   2.071       .  S
Co1242     O1245   2.040       .  S
Co1243     O1245   2.069       .  S
Co1244     O1245   2.037       .  S
C1246      C1970   1.435       .  S
C1247      C1980   1.486       .  S
C1248      C2023   1.469       .  S
C1249      C1950   1.464       .  S
O1250      C1258   1.262       .  A
O1250     Co1270   1.988       .  S
O1251      C1259   1.306       .  A
O1251     Co1271   2.099       .  S
O1252      C1260   1.260   1_545  A
O1252     Co1272   1.988   1_545  S
O1253      C1261   1.271       .  A
O1253     Co1273   2.092       .  S
O1254      C1260   1.250       .  A
O1254     Co1271   1.935       .  S
O1255      C1261   1.251       .  A
O1255     Co1270   1.958       .  S
O1256      C1259   1.267       .  A
O1256     Co1273   1.886       .  S
O1257      C1258   1.262       .  A
O1257     Co1272   1.983       .  S
C1258      C2043   1.480       .  S
C1259      C1940   1.470       .  S
C1261      C1993   1.481       .  S
O1262      C1275   1.263       .  A
O1262     Co1270   1.991       .  S
O1263      C1276   1.272   1_565  A
O1263     Co1271   2.091       .  S
O1264      C1277   1.262       .  A
O1264     Co1272   1.985       .  S
O1265      C1278   1.307       .  A
O1265     Co1273   2.103       .  S
O1266      C1278   1.266       .  A
O1266     Co1271   1.893       .  S
O1267      C1277   1.262       .  A
O1267     Co1270   1.986       .  S
O1268      C1275   1.251       .  A
O1268     Co1273   1.933       .  S
O1269      C1276   1.252   1_565  A
O1269     Co1272   1.958       .  S
Co1270     O1274   2.074       .  S
Co1271     O1274   2.045       .  S
Co1272     O1274   2.072       .  S
Co1273     O1274   2.046       .  S
C1275      C1973   1.435       .  S
C1277      C2033   1.480       .  S
C1278      C1930   1.475       .  S
O1279      C1287   1.277       .  A
O1279     Co1299   1.869       .  S
O1280      C1288   1.272       .  A
O1280     Co1300   2.041       .  S
O1281      C3497   1.274       .  A
O1281     Co1301   1.945   1_655  S
O1282      C1290   1.238   1_655  A
O1282     Co1302   1.963   1_655  S
O1283      C3497   1.287   1_455  A
O1283     Co1300   2.040       .  S
O1284      C1290   1.260       .  A
O1284     Co1299   2.079       .  S
O1285      C1288   1.252   1_655  A
O1285     Co1302   1.935   1_655  S
O1286      C1287   1.316       .  A
O1286     Co1301   2.102       .  S
C1287      C2003   1.472       .  S
C1288      C4088   1.490   1_455  S
C1289      O3489   1.274       .  A
C1289      O3491   1.287       .  A
C1289      C1890   1.459       .  S
C1290      C4118   1.485   1_455  S
O1291      C1304   1.272       .  A
O1291     Co1299   1.942       .  S
O1292      C1305   1.235       .  A
O1292     Co1300   1.959       .  S
O1293      C1306   1.278       .  A
O1293     Co1301   1.870       .  S
O1294      C1307   1.273       .  A
O1294     Co1302   2.048       .  S
O1295      C1307   1.250       .  A
O1295     Co1300   1.932       .  S
O1296      C1306   1.315       .  A
O1296     Co1299   2.098       .  S
O1297      C1304   1.287       .  A
O1297     Co1302   2.042       .  S
O1298      C1305   1.260       .  A
O1298     Co1301   2.086       .  S
Co1299     O1303   2.030       .  S
Co1300     O1303   2.017       .  S
Co1301     O1303   2.036       .  S
Co1302     O1303   2.028       .  S
C1304      C1900   1.462       .  S
C1305      C1920   1.482       .  S
C1306      C1943   1.470       .  S
C1307      C1870   1.492       .  S
O1308      C1316   1.271       .  A
O1308     Co1328   1.869       .  S
O1309      C1317   1.261       .  A
O1309     Co1329   1.994       .  S
O1310      C1318   1.263   1_545  A
O1311      C1319   1.243       .  A
O1311     Co1331   1.959       .  S
O1312      C1318   1.274       .  A
O1313      C1319   1.268       .  A
O1313     Co1328   2.100       .  S
O1314      C1317   1.260       .  A
O1314     Co1331   1.968       .  S
O1315      C1316   1.312       .  A
O1315     Co1330   2.099       .  S
C1316      C1953   1.465       .  S
C1317      C1850   1.479       .  S
C1318      C1893   1.458       .  S
C1319      C1913   1.490       .  S
O1320      C1333   1.263       .  A
O1320     Co1328   1.953       .  S
O1321      C1334   1.246   1_545  A
O1322      C1335   1.270       .  A
O1322     Co1330   1.876       .  S
O1323      C1336   1.258       .  A
O1323     Co1331   1.979       .  S
O1324      C1336   1.262       .  A
O1324     Co1329   1.974       .  S
O1325      C1335   1.314       .  A
O1325     Co1328   2.110       .  S
O1326      C1333   1.272       .  A
O1326     Co1331   2.022       .  S
O1327      C1334   1.267       .  A
Co1328     O1332   2.054       .  S
Co1329     O1332   2.078       .  S
Co1330     O1332   2.053       .  S
Co1331     O1332   2.074       .  S
C1333      C1903   1.457       .  S
C1334      C1923   1.492       .  S
C1335      C1933   1.477       .  S
C1336      C1860   1.472       .  S
O1337      C1345   1.288       .  A
O1337     Co1357   2.077       .  S
O1338      C1346   1.248       .  A
O1338     Co1358   1.914       .  S
O1339      C1347   1.258       .  A
O1339     Co1359   1.987       .  S
O1340      C1348   1.259       .  A
O1340     Co1360   1.949       .  S
O1341      C1347   1.267       .  A
O1341     Co1358   2.023       .  S
O1342      C1348   1.272       .  A
O1342     Co1357   2.020       .  S
O1343      C1346   1.272       .  A
O1343     Co1360   2.024       .  S
O1344      C1345   1.270       .  A
O1344     Co1359   1.932       .  S
C1345      C2143   1.482       .  S
C1346      C1840   1.470       .  S
C1347      C1830   1.483       .  S
O1349      C1362   1.253       .  A
O1349     Co1357   1.967       .  S
O1350      C1363   1.258   1_655  A
O1350     Co1358   1.943   1_655  S
O1351      C1364   1.290       .  A
O1351     Co1359   2.096       .  S
O1352      C1365   1.243       .  A
O1352     Co1360   1.914       .  S
O1353      C1365   1.269       .  A
O1353     Co1358   2.022       .  S
O1354      C1364   1.267       .  A
O1354     Co1357   1.934       .  S
O1355      C1362   1.269       .  A
O1355     Co1360   2.029       .  S
O1356      C1363   1.273       .  A
O1356     Co1359   2.017       .  S
Co1357     O1361   2.025       .  S
Co1358     O1361   2.061       .  S
Co1359     O1361   2.037       .  S
Co1360     O1361   2.062       .  S
C1362      C2927   1.479   1_455  S
C1363      C4008   1.449   1_455  S
C1364      C4341   1.489   1_455  S
C1365      C1790   1.470       .  S
O1366      C1374   1.255       .  A
O1366     Co1386   1.970       .  S
O1367      C1375   1.270       .  A
O1367     Co1387   1.889       .  S
O1368      C1376   1.247       .  A
O1368     Co1388   1.943       .  S
O1369      C1377   1.260       .  A
O1369     Co1389   1.973       .  S
O1370      C1376   1.267       .  A
O1370     Co1387   2.071       .  S
O1371      C1377   1.259       .  A
O1371     Co1386   1.982       .  S
O1372      C1375   1.313       .  A
O1372     Co1389   2.111       .  S
O1373      C1374   1.264       .  A
O1373     Co1388   1.992       .  S
C1374      C2093   1.470       .  S
C1375      C1780   1.484       .  S
C1376      C1820   1.464       .  S
C1377      C1803   1.451       .  S
O1378      C1391   1.246       .  A
O1378     Co1386   1.943       .  S
O1379      C1392   1.263       .  A
O1379     Co1387   1.966       .  S
O1380      C1393   1.256       .  A
O1380     Co1388   1.966       .  S
O1381      C1394   1.267       .  A
O1381     Co1389   1.878       .  S
O1382      C1394   1.312       .  A
O1382     Co1387   2.109       .  S
O1383      C1393   1.257       .  A
O1383     Co1386   1.967       .  S
O1384      C1391   1.272       .  A
O1384     Co1389   2.100       .  S
O1385      C1392   1.268       .  A
O1385     Co1388   2.005       .  S
Co1386     O1390   2.070       .  S
Co1387     O1390   2.057       .  S
Co1388     O1390   2.077       .  S
Co1389     O1390   2.051       .  S
C1391      C1833   1.471       .  S
C1392      C1813   1.458       .  S
C1393      C2103   1.463       .  S
C1394      C1770   1.474       .  S
O1395      C1403   1.317       .  A
O1396      C1404   1.258       .  A
O1396     Co1416   1.954       .  S
O1397      C1405   1.268       .  A
O1397     Co1417   2.097       .  S
O1398      C1406   1.276       .  A
O1398     Co1418   2.026       .  S
O1399      C1405   1.242       .  A
O1399     Co1416   1.962       .  S
O1400      C1406   1.266       .  A
O1400     Co1415   1.951       .  S
O1401      C1404   1.264       .  A
O1402      C1403   1.271       .  A
O1402     Co1417   1.878       .  S
C1403      C1783   1.485       .  S
C1404      C1710   1.485       .  S
C1405      C1760   1.496       .  S
C1406      C1740   1.458       .  S
O1407      C1420   1.266       .  A
O1407     Co1415   2.107       .  S
O1408      C3629   1.277       .  A
O1408     Co1416   2.022       .  S
O1409      C1422   1.317       .  A
O1409     Co1417   2.116       .  S
O1410      C3631   1.256       .  A
O1411      C3631   1.267       .  A
O1411     Co1416   2.022       .  S
O1412      C1422   1.270   1_545  A
O1413      C1420   1.238       .  A
O1413     Co1418   1.959       .  S
O1414      C3629   1.269       .  A
O1414     Co1417   1.958       .  S
Co1416     O1419   2.066       .  S
Co1417     O1419   2.057       .  S
C1420      C3958   1.494       .  S
C1421      O3616   1.277   1_455  A
C1421      O3622   1.269       .  A
C1421      C1730   1.461       .  S
C1422      C2897   1.468   1_565  S
C1423      O3618   1.256       .  A
C1423      O3619   1.267   1_455  A
C1423      C1720   1.493       .  S
O1424      C1432   1.320       .  A
O1424     Co1444   2.116       .  S
O1425      C1433   1.252       .  A
O1425     Co1445   1.933       .  S
O1426      C1434   1.263       .  A
O1426     Co1446   2.092       .  S
O1427      C1435   1.287       .  A
O1427     Co1447   2.043       .  S
O1428      C1434   1.236       .  A
O1428     Co1445   1.962       .  S
O1429      C1435   1.274       .  A
O1429     Co1444   1.945       .  S
O1430      C1433   1.272       .  A
O1430     Co1447   2.043       .  S
O1431      C1432   1.276       .  A
O1431     Co1446   1.862       .  S
C1432      C1773   1.475       .  S
C1433      C1700   1.488       .  S
C1434      C1763   1.491       .  S
C1435      C1743   1.459       .  S
O1436      C1449   1.262       .  A
O1436     Co1444   2.098       .  S
O1437      C1450   1.288       .  A
O1437     Co1445   2.042       .  S
O1438      C1451   1.319       .  A
O1438     Co1446   2.112       .  S
O1439      C1452   1.249       .  A
O1439     Co1447   1.934       .  S
O1440      C1452   1.272       .  A
O1440     Co1445   2.052       .  S
O1441      C1451   1.276       .  A
O1441     Co1444   1.860       .  S
O1442      C1449   1.235       .  A
O1442     Co1447   1.961       .  S
O1443      C1450   1.275       .  A
O1443     Co1446   1.947       .  S
Co1444     O1448   2.026       .  S
Co1445     O1448   2.022       .  S
Co1446     O1448   2.026       .  S
Co1447     O1448   2.014       .  S
C1449      C1753   1.490       .  S
C1450      C1733   1.464       .  S
C1451      C1843   1.464       .  S
C1452      C1690   1.487       .  S
O1453      C1461   1.256       .  A
O1453     Co1473   1.947       .  S
O1454      C1462   1.311       .  A
O1454     Co1474   2.102       .  S
O1455      C1463   1.271       .  A
O1455     Co1475   2.012       .  S
O1456      C1464   1.268       .  A
O1456     Co1476   2.099       .  S
O1457      C1463   1.260       .  A
O1457     Co1474   1.940       .  S
O1458      C1464   1.245       .  A
O1458     Co1473   1.967       .  S
O1459      C1462   1.272       .  A
O1459     Co1476   1.881       .  S
O1460      C1461   1.262       .  A
O1460     Co1475   2.001       .  S
C1461      C1703   1.482       .  S
C1462      C1630   1.473       .  S
C1463      C1650   1.440       .  S
C1464      C1660   1.496       .  S
O1465      C3686   1.269       .  A
O1465     Co1473   2.001       .  S
O1466      C3687   1.268       .  A
O1466     Co1474   2.098       .  S
O1467      C3688   1.258       .  A
O1467     Co1475   1.952       .  S
O1468      C3689   1.312       .  A
O1468     Co1476   2.106       .  S
O1469      C3689   1.270       .  A
O1469     Co1474   1.875       .  S
O1470      C3688   1.264       .  A
O1470     Co1473   2.006       .  S
O1471      C3686   1.262       .  A
O1471     Co1476   1.948       .  S
O1472      C3687   1.244       .  A
O1472     Co1475   1.967       .  S
Co1473     O1477   2.077       .  S
Co1474     O1477   2.055       .  S
Co1475     O1477   2.075       .  S
Co1476     O1477   2.060       .  S
C1478      O3673   1.269   1_455  A
C1478      O3679   1.262       .  A
C1478      C1640   1.447       .  S
C1479      O3674   1.268   1_455  A
C1479      O3680   1.244       .  A
C1479      C1670   1.497       .  S
C1480      O3675   1.258   1_455  A
C1480      O3678   1.264   1_455  A
C1480      C1693   1.492       .  S
C1481      O3676   1.312       .  A
C1481      O3677   1.270       .  A
C1481      C1680   1.474       .  S
O1482      C1490   1.273       .  A
O1482     Co1502   2.051       .  S
O1483      C1491   1.279       .  A
O1483     Co1503   1.871       .  S
O1484      C1492   1.235   1_545  A
O1485      C1493   1.268       .  A
O1485     Co1505   1.928       .  S
O1486      C1492   1.260       .  A
O1487      C1493   1.284       .  A
O1487     Co1502   2.034       .  S
O1488      C1491   1.315       .  A
O1488     Co1505   2.102       .  S
O1489      C1490   1.248       .  A
O1489     Co1504   1.923       .  S
C1490      C1863   1.489       .  S
C1491      C1580   1.473       .  S
C1492      C1613   1.488       .  S
C1493      C1600   1.448       .  S
O1494      C1507   1.237   1_655  A
O1494     Co1502   1.959   1_655  S
O1495      C1508   1.273   1_545  A
O1496      C1509   1.273       .  A
O1496     Co1504   2.052       .  S
O1497      C1510   1.276       .  A
O1497     Co1505   1.869       .  S
O1498      C1510   1.316       .  A
O1498     Co1503   2.107       .  S
O1499      C1509   1.250   1_655  A
O1499     Co1502   1.932   1_655  S
O1500      C1507   1.263       .  A
O1500     Co1505   2.091       .  S
O1501      C1508   1.286   1_455  A
Co1502     O1506   2.027       .  S
Co1503     O1506   2.037       .  S
Co1504     O1506   2.016       .  S
Co1505     O1506   2.026       .  S
C1507      C3828   1.492   1_455  S
C1508      C3798   1.447       .  S
C1509      C4061   1.495   1_455  S
C1510      C1683   1.473       .  S
O1511      C1519   1.250       .  A
O1511     Co1531   1.934       .  S
O1512      C1520   1.315       .  A
O1512     Co1532   2.103       .  S
O1513      C1521   1.285       .  A
O1513     Co1533   2.033       .  S
O1514      C1522   1.261       .  A
O1515      C1521   1.270       .  A
O1515     Co1532   1.926       .  S
O1516      C1522   1.236       .  A
O1517      C1520   1.278       .  A
O1517     Co1534   1.871       .  S
O1518      C1519   1.275       .  A
O1518     Co1533   2.061       .  S
C1519      C1723   1.495       .  S
C1520      C1583   1.473       .  S
C1521      C1643   1.444       .  S
C1522      C1673   1.493       .  S
O1523      C1536   1.289       .  A
O1524      C1537   1.261       .  A
O1524     Co1532   2.089       .  S
O1525      C1538   1.249       .  A
O1525     Co1533   1.931       .  S
O1526      C1539   1.314       .  A
O1526     Co1534   2.103       .  S
O1527      C1539   1.276       .  A
O1527     Co1532   1.867       .  S
O1528      C1538   1.273       .  A
O1528     Co1531   2.056       .  S
O1529      C1536   1.272       .  A
O1530      C1537   1.237       .  A
O1530     Co1533   1.966       .  S
Co1531     O1535   2.015       .  S
Co1532     O1535   2.025       .  S
Co1533     O1535   2.023       .  S
Co1534     O1535   2.033       .  S
C1536      C1653   1.462       .  S
C1537      C1663   1.490       .  S
C1538      C1713   1.489       .  S
C1539      C1570   1.456       .  S
O1540      C1548   1.259       .  A
O1540     Co1560   1.986       .  S
O1541      C1549   1.270       .  A
O1541     Co1561   1.879       .  S
O1542      C1550   1.248       .  A
O1542     Co1562   1.971       .  S
O1543      C1551   1.260       .  A
O1543     Co1563   1.952       .  S
O1544      C1550   1.268       .  A
O1544     Co1561   2.092       .  S
O1545      C1551   1.266       .  A
O1545     Co1560   2.001       .  S
O1546      C1549   1.309       .  A
O1546     Co1563   2.098       .  S
O1547      C1548   1.262       .  A
O1547     Co1562   1.977       .  S
C1548      C1873   1.480       .  S
C1549      C1573   1.456       .  S
C1550      C1610   1.496       .  S
C1551      C1603   1.449       .  S
O1552      C1565   1.249       .  A
O1552     Co1560   1.970       .  S
O1553      C1566   1.259       .  A
O1553     Co1561   1.941       .  S
O1554      C1567   1.259       .  A
O1554     Co1562   1.989       .  S
O1555      C1568   1.271       .  A
O1555     Co1563   1.884       .  S
O1556      C1568   1.310       .  A
O1556     Co1561   2.100       .  S
O1557      C1567   1.260       .  A
O1557     Co1560   1.970       .  S
O1558      C1565   1.270       .  A
O1558     Co1563   2.097       .  S
O1559      C1566   1.269       .  A
O1559     Co1562   2.012       .  S
Co1560     O1564   2.079       .  S
Co1561     O1564   2.053       .  S
Co1562     O1564   2.082       .  S
Co1563     O1564   2.057       .  S
C1565      C1623   1.492       .  S
C1566      C1593   1.448       .  S
C1567      C1883   1.478       .  S
C1568      C1633   1.473       .  S
C1569      C1570   1.404       .  A
C1569      C1574   1.396       .  A
C1569      H1575   1.083       .  S
C1570      C1571   1.398       .  A
C1571      C1572   1.395       .  A
C1571      H1576   1.083       .  S
C1572      C1573   1.404       .  A
C1572      H1577   1.083       .  S
C1573      C1574   1.399       .  A
C1574      H1578   1.083       .  S
C1579      C1580   1.399       .  A
C1579      C1584   1.395       .  A
C1579      H1585   1.083       .  S
C1581      C1582   1.395       .  A
C1581      H1586   1.083       .  S
C1582      C1583   1.398       .  A
C1582      H1587   1.083       .  S
C1584      H1588   1.083       .  S
C1589      C1590   1.399       .  A
C1589      C1594   1.390       .  A
C1590      C3716   1.447       .  S
C1590      C1591   1.401       .  A
C1591      C1592   1.388       .  A
C1591      H3804   1.084       .  S
C1592      C1593   1.399       .  A
C1592      H1597   1.083       .  S
C1593      C1594   1.401       .  A
C1594      H1598   1.084       .  S
H1596      C3799   1.084   1_455  S
C1599      C1600   1.399       .  A
C1599      C1604   1.387       .  A
C1599      H1605   1.083       .  S
C1600      C1601   1.401       .  A
C1601      C1602   1.391       .  A
C1601      H1606   1.084       .  S
C1602      C1603   1.400       .  A
C1602      H1607   1.083       .  S
C1603      C1604   1.401       .  A
C1604      H1608   1.084       .  S
C1609      C1610   1.410       .  A
C1609      C1614   1.408       .  A
C1609      H1615   1.083       .  S
C1610      C1611   1.406       .  A
C1611      C1612   1.408       .  A
C1611      H1616   1.084       .  S
C1612      C1613   1.408       .  A
C1613      C1614   1.404       .  A
C1614      H1618   1.084       .  S
C1619      C1620   1.410       .  A
C1619      C1624   1.405       .  A
C1619      H1625   1.083       .  S
C1620      C3715   1.492       .  S
C1620      C1621   1.405       .  A
C1621      C1622   1.411       .  A
C1621      H3834   1.083       .  S
C1622      C1623   1.410       .  A
C1622      H1627   1.082       .  S
C1623      C1624   1.403       .  A
C1624      H1628   1.084       .  S
H1626      C3829   1.083   1_455  S
C1629      C1630   1.412       .  A
C1629      C1634   1.395       .  A
C1629      H1635   1.083       .  S
C1630      C1631   1.397       .  A
C1631      C1632   1.395       .  A
C1631      H1636   1.083       .  S
C1632      C1633   1.412       .  A
C1632      H1637   1.083       .  S
C1633      C1634   1.397       .  A
C1634      H1638   1.083       .  S
C1639      C1640   1.401       .  A
C1639      C1644   1.385       .  A
C1639      H3853   1.084   1_455  S
C1640      C1641   1.399       .  A
C1641      C1642   1.391       .  A
C1641      H1646   1.083       .  S
C1642      C1643   1.401       .  A
C1642      H1647   1.084       .  S
C1643      C1644   1.397       .  A
C1644      H1648   1.083       .  S
H1645      C3847   1.084       .  S
C1649      C1650   1.395       .  A
C1649      C1654   1.387       .  A
C1649      H1655   1.084       .  S
C1650      C1651   1.396       .  A
C1651      C1652   1.391       .  A
C1651      H1656   1.083       .  S
C1652      C1653   1.405       .  A
C1652      H1657   1.083       .  S
C1653      C1654   1.405       .  A
C1654      H1658   1.083       .  S
C1659      C1660   1.405       .  A
C1659      C1664   1.409       .  A
C1659      H1665   1.083       .  S
C1660      C1661   1.411       .  A
C1661      C1662   1.408       .  A
C1661      H1666   1.083       .  S
C1662      C1663   1.403       .  A
C1662      H1667   1.084       .  S
C1663      C1664   1.410       .  A
C1664      H1668   1.083       .  S
C1669      C1670   1.411       .  A
C1669      C1674   1.409       .  A
C1669      H1675   1.083       .  S
C1670      C1671   1.405       .  A
C1671      C1672   1.409       .  A
C1671      H3884   1.083       .  S
C1672      C1673   1.411       .  A
C1672      H1677   1.083       .  S
C1673      C1674   1.404       .  A
C1674      H1678   1.084       .  S
H1676      C3879   1.083       .  S
C1679      C1680   1.397   1_455  A
C1679      C1684   1.397       .  A
C1679      H1685   1.083       .  S
C1680      C3889   1.412       .  A
C1681      C3888   1.412       .  A
C1681      C1682   1.393       .  A
C1681      H1686   1.083       .  S
C1682      C3891   1.396       .  A
C1682      H1687   1.083       .  S
C1683      C3890   1.396   1_455  A
C1683      C1684   1.412       .  A
C1684      H1688   1.083       .  S
C1689      C1690   1.409       .  A
C1689      C1694   1.418       .  A
C1689      H1695   1.082       .  S
C1690      C1691   1.404       .  A
C1691      C1692   1.383       .  A
C1691      H1696   1.084       .  S
C1692      C1693   1.403       .  A
C1692      H1697   1.083       .  S
C1693      C1694   1.413       .  A
C1694      H1698   1.082       .  S
C1699      C1700   1.406       .  A
C1699      C1704   1.383       .  A
C1699      H1705   1.083       .  S
C1700      C1701   1.410       .  A
C1701      C1702   1.415       .  A
C1701      H1706   1.083       .  S
C1702      C1703   1.410       .  A
C1702      H1707   1.082       .  S
C1703      C1704   1.400       .  A
C1704      H1708   1.084       .  S
C1709      C1710   1.412       .  A
C1709      C1714   1.417       .  A
C1709      H1715   1.083   1_565  S
C1710      C1711   1.399       .  A
C1711      C1712   1.384       .  A
C1711      H1716   1.084       .  S
C1712      C1713   1.407       .  A
C1712      H1717   1.083       .  S
C1713      C1714   1.409       .  A
C1714      H1718   1.082   1_565  S
C1719      C1720   1.413       .  A
C1719      C1724   1.422       .  A
C1719      H1725   1.082       .  S
C1720      C1721   1.402       .  A
C1721      C1722   1.383       .  A
C1722      C1723   1.405       .  A
C1723      C1724   1.412       .  A
C1724      H1728   1.082       .  S
C1729      C1730   1.400       .  A
C1729      C1734   1.396       .  A
C1729      H1735   1.083       .  S
C1730      C1731   1.403       .  A
C1731      C1732   1.393       .  A
C1731      H3944   1.084   1_455  S
C1732      C1733   1.401       .  A
C1732      H1737   1.083       .  S
C1733      C1734   1.405       .  A
C1734      H1738   1.084       .  S
H1736      C3939   1.084       .  S
C1739      C1740   1.400       .  A
C1739      C1744   1.394       .  A
C1739      H1745   1.083       .  S
C1740      C1741   1.403       .  A
C1741      C1742   1.393       .  A
C1741      H1746   1.084       .  S
C1742      C1743   1.400       .  A
C1742      H1747   1.083       .  S
C1743      C1744   1.404       .  A
C1744      H1748   1.084       .  S
C1749      C1750   1.403       .  A
C1749      C1754   1.408       .  A
C1749      H1755   1.083   1_455  S
C1750      C3628   1.494       .  S
C1750      C1751   1.412       .  A
C1751      C1752   1.407       .  A
C1751      H1756   1.083       .  S
C1752      C1753   1.402       .  A
C1752      H1757   1.084       .  S
C1753      C1754   1.411       .  A
C1754      H1758   1.083       .  S
C1759      C1760   1.412       .  A
C1759      C1764   1.407       .  A
C1759      H1765   1.083       .  S
C1760      C1761   1.404       .  A
C1761      C1762   1.410       .  A
C1761      H1766   1.083       .  S
C1762      C1763   1.411       .  A
C1762      H1767   1.083       .  S
C1763      C1764   1.402       .  A
C1764      H1768   1.084       .  S
C1769      C1770   1.395       .  A
C1769      C1774   1.396       .  A
C1769      H1775   1.083       .  S
C1770      C1771   1.414       .  A
C1771      C1772   1.395       .  A
C1771      H1776   1.083       .  S
C1772      C1773   1.395       .  A
C1772      H1777   1.083       .  S
C1773      C1774   1.414       .  A
C1774      H1778   1.083       .  S
C1779      C1780   1.397       .  A
C1779      C1784   1.399       .  A
C1779      H1785   1.083       .  S
C1780      C1781   1.415       .  A
C1781      C1782   1.401       .  A
C1781      H1786   1.083       .  S
C1782      C1783   1.398       .  A
C1782      H1787   1.083       .  S
C1783      C1784   1.415       .  A
C1784      H1788   1.083       .  S
C1789      C1790   1.415       .  A
C1789      C1794   1.391       .  A
C1789      H1795   1.084       .  S
C1790      C3999   1.394   1_455  A
C1791      C3998   1.394       .  A
C1791      C1792   1.398       .  A
C1791      H1796   1.083       .  S
C1792      C4001   1.416       .  A
C1792      H1797   1.083       .  S
C1793      C2526   1.468       .  S
C1793      C4000   1.416       .  A
C1793      C1794   1.391   1_655  A
C1799      C1800   1.398       .  A
C1799      C1804   1.384       .  A
C1799      H1805   1.083       .  S
C1800      C3571   1.449       .  S
C1800      C1801   1.403       .  A
C1801      C1802   1.396       .  A
C1801      H4014   1.084       .  S
C1802      C1803   1.400       .  A
C1802      H1807   1.083       .  S
C1803      C1804   1.401       .  A
C1804      H1808   1.084       .  S
H1806      C4009   1.084   1_455  S
C1809      C1810   1.403       .  A
C1809      C1814   1.396       .  A
C1809      H1815   1.084       .  S
C1810      C1811   1.399       .  A
C1811      C1812   1.390       .  A
C1812      C1813   1.402       .  A
C1812      H1817   1.084       .  S
C1813      C1814   1.401       .  A
C1814      H1818   1.083       .  S
C1819      C1820   1.399       .  A
C1819      C1824   1.392       .  A
C1819      H1825   1.084       .  S
C1820      C1821   1.403       .  A
C1821      C1822   1.404       .  A
C1821      H1826   1.083       .  S
C1822      C1823   1.408       .  A
C1822      H4035   1.083       .  S
C1823      C2466   1.479   1_565  S
C1823      C1824   1.406       .  A
H1827      C4030   1.083   1_455  S
C1829      C1830   1.406       .  A
C1829      C1834   1.400       .  A
C1829      H1835   1.083       .  S
C1830      C1831   1.406       .  A
C1831      C1832   1.402       .  A
C1831      H1836   1.083       .  S
C1832      C1833   1.403       .  A
C1832      H1837   1.083       .  S
C1833      C1834   1.402       .  A
C1834      H1838   1.084       .  S
C1839      C1840   1.414       .  A
C1839      C1844   1.388       .  A
C1839      H1845   1.084       .  S
C1840      C1841   1.395       .  A
C1841      C1842   1.399       .  A
C1841      H1846   1.083       .  S
C1842      C1843   1.414       .  A
C1842      H1847   1.083       .  S
C1843      C1844   1.390       .  A
C1844      H1848   1.083       .  S
C1849      C1850   1.396       .  A
C1849      C1854   1.388       .  A
C1849      H1855   1.084       .  S
C1850      C1851   1.410       .  A
C1851      C1852   1.416       .  A
C1851      H1856   1.083       .  S
C1852      C1853   1.410       .  A
C1852      H4065   1.083       .  S
C1853      C3717   1.495       .  S
C1853      C1854   1.411       .  A
C1854      H1858   1.083       .  S
H1857      C4060   1.083       .  S
C1859      C1860   1.410       .  A
C1859      C1864   1.413       .  A
C1859      H1865   1.082       .  S
C1860      C1861   1.394       .  A
C1861      C1862   1.386       .  A
C1861      H1866   1.084       .  S
C1862      C1863   1.412       .  A
C1862      H1867   1.083       .  S
C1863      C1864   1.408       .  A
C1864      H1868   1.083       .  S
C1869      C1870   1.411       .  A
C1869      C1874   1.387       .  A
C1869      H1875   1.083       .  S
C1870      C1871   1.409       .  A
C1871      C1872   1.414       .  A
C1871      H1876   1.083       .  S
C1872      C1873   1.411       .  A
C1872      H1877   1.083       .  S
C1873      C1874   1.397       .  A
C1874      H1878   1.084       .  S
C1879      C1880   1.409       .  A
C1879      C1884   1.387       .  A
C1879      H1885   1.083       .  S
C1880      C3496   1.490       .  S
C1880      C1881   1.409       .  A
C1881      C1882   1.413       .  A
C1881      H4094   1.083       .  S
C1882      C1883   1.409       .  A
C1882      H1887   1.083       .  S
C1883      C1884   1.398       .  A
C1884      H1888   1.084       .  S
H1886      C4089   1.083       .  S
C1889      C1890   1.403       .  A
C1889      C1894   1.393       .  A
C1889      H4103   1.084       .  S
C1890      C1891   1.401       .  A
C1891      C1892   1.394       .  A
C1891      H1896   1.083       .  S
C1892      C1893   1.403       .  A
C1892      H1897   1.084       .  S
C1893      C1894   1.400       .  A
C1894      H1898   1.083       .  S
H1895      C4097   1.084   1_455  S
C1899      C1900   1.402       .  A
C1899      C1904   1.393       .  A
C1899      H1905   1.083       .  S
C1900      C1901   1.404       .  A
C1901      C1902   1.394       .  A
C1901      H1906   1.084       .  S
C1902      C1903   1.400       .  A
C1902      H1907   1.083       .  S
C1903      C1904   1.402       .  A
C1904      H1908   1.084       .  S
C1909      C1910   1.409       .  A
C1909      C1914   1.406       .  A
C1909      H1915   1.083       .  S
C1910      C3498   1.485       .  S
C1910      C1911   1.402       .  A
C1911      C1912   1.406       .  A
C1911      H4124   1.084       .  S
C1912      C1913   1.410       .  A
C1912      H1917   1.083       .  S
C1913      C1914   1.404       .  A
C1914      H1918   1.084       .  S
H1916      C4119   1.084   1_455  S
C1919      C1920   1.402       .  A
C1919      C1924   1.405       .  A
C1919      H1925   1.084       .  S
C1920      C1921   1.408       .  A
C1921      C1922   1.407       .  A
C1921      H1926   1.083       .  S
C1922      C1923   1.405       .  A
C1922      H1927   1.083       .  S
C1923      C1924   1.410       .  A
C1924      H1928   1.083       .  S
C1929      C1930   1.413   1_545  A
C1929      H1935   1.083       .  S
C1930      C1931   1.396       .  A
C1931      C1932   1.395       .  A
C1931      H1936   1.083       .  S
C1932      H1937   1.083       .  S
C1933      C1934   1.398       .  A
C1934      H1938   1.083       .  S
C1939      C1940   1.411       .  A
C1939      C1944   1.392   1_554  A
C1939      H1945   1.083       .  S
C1940      C1941   1.397       .  A
C1941      C1942   1.395       .  A
C1941      H1946   1.083       .  S
C1942      C1943   1.411   1_554  A
C1942      H1947   1.083       .  S
C1943      C1944   1.396       .  A
C1944      H1948   1.083       .  S
C1949      C1950   1.410       .  A
C1949      C1954   1.394       .  A
C1949      H1955   1.083       .  S
C1950      C1951   1.395       .  A
C1951      C1952   1.390       .  A
C1951      H1956   1.083       .  S
C1952      C1953   1.410   1_554  A
C1952      H1957   1.083       .  S
C1953      C1954   1.396   1_556  A
C1954      H1958   1.083   1_554  S
C1959      C1960   1.400       .  A
C1959      C1964   1.383       .  A
C1959      H4173   1.084   1_455  S
C1960      C3439   1.434       .  S
C1960      C1961   1.396       .  A
C1961      C1962   1.383       .  A
C1961      H1966   1.083       .  S
C1962      C1963   1.400       .  A
C1962      H1967   1.084       .  S
C1963      C1964   1.396       .  A
H1965      C4167   1.084       .  S
C1969      C1970   1.400       .  A
C1969      C1974   1.383       .  A
C1969      H1975   1.084       .  S
C1970      C1971   1.396       .  A
C1971      C1972   1.383       .  A
C1971      H1976   1.083       .  S
C1972      C1973   1.400       .  A
C1972      H1977   1.084       .  S
C1973      C1974   1.396       .  A
C1974      H1978   1.083       .  S
C1979      C1980   1.406       .  A
C1979      C1984   1.408       .  A
C1979      H1985   1.084       .  S
C1980      C1981   1.407       .  A
C1981      C1982   1.403       .  A
C1981      H1986   1.083       .  S
C1982      C1983   1.403       .  A
C1982      H1987   1.084       .  S
C1983      C1984   1.407       .  A
C1989      C1990   1.404       .  A
C1989      C1994   1.405       .  A
C1989      H4203   1.084   1_455  S
C1990      C3440   1.481   1_455  S
C1990      C1991   1.406       .  A
C1991      C1992   1.404       .  A
C1991      H1996   1.083       .  S
C1992      C1993   1.404       .  A
C1992      H1997   1.084       .  S
C1993      C1994   1.406       .  A
C1994      H1998   1.083       .  S
H1995      C4197   1.084       .  S
C1999      C2000   1.412       .  A
C1999      C2004   1.393   1_554  A
C1999      H2005   1.083       .  S
C2000      C4209   1.397       .  A
C2001      C4208   1.397   1_455  A
C2001      C2002   1.396       .  A
C2001      H2006   1.083       .  S
C2002      C2003   1.412   1_554  A
C2002      H2007   1.083       .  S
C2003      C4212   1.396   1_455  A
C2004      C4211   1.396       .  A
C2004      H2008   1.083       .  S
C2009      C2010   1.409       .  A
C2009      C2014   1.395       .  A
C2009      H2015   1.083       .  S
C2010      C2011   1.401       .  A
C2011      C2012   1.399       .  A
C2011      H2016   1.083       .  S
C2012      C2013   1.408       .  A
C2012      H2017   1.083       .  S
C2013      C3437   1.472   1_455  S
C2013      C2014   1.399       .  A
C2014      H4226   1.083       .  S
H2018      C4222   1.083       .  S
C2019      C2020   1.408       .  A
C2019      C2024   1.396       .  A
C2019      H2025   1.083       .  S
C2020      C2021   1.400       .  A
C2021      C2022   1.396       .  A
C2021      H2026   1.083       .  S
C2022      C2023   1.407       .  A
C2022      H2027   1.083       .  S
C2023      C2024   1.399       .  A
C2024      H2028   1.083       .  S
C2029      C2030   1.403       .  A
C2029      C2034   1.396       .  A
C2029      H2035   1.083       .  S
C2030      C2031   1.410       .  A
C2031      C2032   1.403       .  A
C2031      H2036   1.083       .  S
C2032      C2033   1.403       .  A
C2032      H2037   1.083       .  S
C2033      C2034   1.407       .  A
C2034      H2038   1.083       .  S
C2039      C2040   1.403       .  A
C2039      C2044   1.399       .  A
C2039      H4253   1.083       .  S
C2040      C2041   1.410       .  A
C2041      C2042   1.399       .  A
C2041      H2046   1.083       .  S
C2042      C2043   1.402       .  A
C2042      H2047   1.083       .  S
C2043      C2044   1.408       .  A
C2044      H2048   1.083       .  S
H2045      C4247   1.083       .  S
C2049      C2050   1.401       .  A
C2049      C2054   1.396       .  A
C2049      H4263   1.084   1_455  S
C2050      C2051   1.401       .  A
C2051      C2052   1.394       .  A
C2052      C2053   1.402       .  A
C2052      H2057   1.084       .  S
C2053      C2054   1.403       .  A
C2054      H2058   1.083       .  S
H2055      C4257   1.084       .  S
C2059      C2060   1.402       .  A
C2059      C2064   1.397       .  A
C2059      H2065   1.084       .  S
C2060      C2061   1.403       .  A
C2061      C2062   1.395       .  A
C2061      H2066   1.083       .  S
C2062      C2063   1.401       .  A
C2062      H2067   1.084       .  S
C2063      C2064   1.402       .  A
C2064      H2068   1.083       .  S
C2069      C2070   1.408       .  A
C2069      C2074   1.402       .  A
C2070      C2071   1.406       .  A
C2071      C2072   1.413       .  A
C2071      H2076   1.083       .  S
C2072      C2073   1.412       .  A
C2072      H2077   1.082       .  S
C2073      C2074   1.405       .  A
C2074      H2078   1.083       .  S
C2079      C2080   1.407       .  A
C2079      C2084   1.402       .  A
C2079      H2085   1.083       .  S
C2080      C3381   1.490   1_455  S
C2080      C2081   1.406       .  A
C2081      C2082   1.412       .  A
C2081      H4294   1.083   1_455  S
C2082      C2083   1.411       .  A
C2082      H2087   1.082       .  S
C2083      C2084   1.405       .  A
C2084      H2088   1.083       .  S
H2086      C4289   1.083       .  S
C2089      C2090   1.406       .  A
C2089      C2094   1.392       .  A
C2089      H2095   1.083       .  S
C2090      C2091   1.410       .  A
C2091      C2092   1.404       .  A
C2091      H4304   1.083       .  S
C2092      C2093   1.403       .  A
C2092      H2097   1.083       .  S
C2093      C2094   1.400       .  A
C2094      H2098   1.084       .  S
H2096      C4299   1.083       .  S
C2099      C2100   1.404       .  A
C2099      C2104   1.399       .  A
C2099      H2105   1.083       .  S
C2100      C2101   1.401       .  A
C2101      C2102   1.389       .  A
C2101      H2106   1.084       .  S
C2102      C2103   1.402       .  A
C2102      H2107   1.083       .  S
C2103      C2104   1.403       .  A
C2104      H2108   1.083       .  S
C2109      C2110   1.416       .  A
C2109      C2114   1.399       .  A
C2109      H2115   1.084       .  S
C2110      C2111   1.392       .  A
C2111      C2112   1.397       .  A
C2111      H2116   1.082       .  S
C2112      C2113   1.420       .  A
C2112      H2117   1.083       .  S
C2113      C2114   1.396       .  A
C2114      H2118   1.082       .  S
C2119      C4328   1.399       .  A
C2119      C2124   1.405       .  A
C2119      H2125   1.083       .  S
C2120      C3379   1.491       .  S
C2120      C4327   1.399       .  A
C2120      C2121   1.417       .  A
C2121      C2122   1.410       .  A
C2121      H2126   1.080       .  S
C2122      C2123   1.399       .  A
C2122      H2127   1.082       .  S
C2123      C4332   1.418       .  A
C2124      C4331   1.418       .  A
C2124      H2128   1.084       .  S
C2129      C2130   1.407       .  A
C2129      C2134   1.410       .  A
C2129      H2135   1.082       .  S
C2130      C2131   1.407       .  A
C2131      C2132   1.400       .  A
C2131      H2136   1.083       .  S
C2132      C2133   1.403       .  A
C2132      H2137   1.083       .  S
C2133      C3572   1.489       .  S
C2133      C2134   1.410       .  A
C2134      H2138   1.083       .  S
C2139      C2140   1.404       .  A
C2139      C2144   1.393       .  A
C2139      H2145   1.083       .  S
C2140      C2141   1.407       .  A
C2141      C2142   1.409       .  A
C2141      H2146   1.083       .  S
C2142      C2143   1.408       .  A
C2142      H2147   1.083       .  S
C2143      C2144   1.403       .  A
C2144      H2148   1.083       .  S
C2149      C2150   1.417       .  A
C2149      C2154   1.398       .  A
C2149      H2155   1.083       .  S
C2150      C2151   1.397       .  A
C2151      C2152   1.399       .  A
C2151      H2156   1.082       .  S
C2152      C2153   1.418       .  A
C2152      H2157   1.084       .  S
C2153      C2154   1.396       .  A
C2154      H2158   1.082       .  S
C2159      C2160   1.402       .  A
C2159      C2164   1.388       .  A
C2159      H4373   1.084       .  S
C2160      C2161   1.404       .  A
C2161      C2162   1.404       .  A
C2161      H2166   1.083       .  S
C2162      C2163   1.407       .  A
C2162      H2167   1.083       .  S
C2163      C2164   1.402       .  A
C2164      H2168   1.083       .  S
H2165      C4367   1.084       .  S
C2169      C2170   1.403       .  A
C2169      C2174   1.391       .  A
C2169      H2175   1.085       .  S
C2170      C2171   1.400       .  A
C2171      C2172   1.401       .  A
C2171      H2176   1.083       .  S
C2172      C2173   1.409       .  A
C2172      H2177   1.084       .  S
C2173      C2174   1.401       .  A
C2174      H2178   1.083       .  S
C2179      C2180   1.396       .  A
C2179      C2184   1.390       .  A
C2179      H2185   1.084       .  S
C2180      C2181   1.407       .  A
C2181      C2182   1.401       .  A
C2181      H2186   1.083       .  S
C2182      C2183   1.402       .  A
C2182      H2187   1.084       .  S
C2183      C2184   1.408       .  A
C2184      H2188   1.083       .  S
C2189      C2190   1.411       .  A
C2189      C2194   1.398       .  A
C2189      H2195   1.080       .  S
C2190      C2191   1.397       .  A
C2191      C2192   1.393       .  A
C2191      H2196   1.083       .  S
C2192      C2193   1.409       .  A
C2192      H2197   1.083       .  S
C2193      C2194   1.396       .  A
C2194      H4406   1.083       .  S
H2198      C4402   1.083       .  S
C2199      C2200   1.404       .  A
C2199      C2204   1.415       .  A
C2199      H2205   1.082       .  S
C2201      C2202   1.399       .  A
C2201      H2206   1.083       .  S
C2202      C2203   1.396       .  A
C2202      H2207   1.083       .  S
C2204      H2208   1.080       .  S
O2209      C2217   1.240       .  A
O2209     Co2229   1.925       .  S
O2210      C2218   1.289       .  A
O2210     Co2230   2.065       .  S
O2211      C2219   1.266       .  A
O2211     Co2231   1.935       .  S
O2212      C2220   1.246       .  A
O2212     Co3336   1.961       .  S
O2213      C2219   1.287       .  A
O2213     Co2230   2.054       .  S
O2214      C2220   1.266       .  A
O2214     Co3333   2.027       .  S
O2215      C2218   1.277       .  A
O2215     Co2232   1.948       .  S
O2216      C2217   1.283       .  A
O2216     Co2231   2.107       .  S
C2217      C3304   1.506       .  S
C2218      C3234   1.490       .  S
C2219      C3267   1.469       .  S
C2220      C3294   1.471       .  S
O2221      C2234   1.255       .  A
O2221     Co3333   1.928       .  S
O2222      C2235   1.242       .  A
O2222     Co2230   1.981       .  S
O2223      C2236   1.228       .  A
O2223     Co2231   1.928       .  S
O2224      C2237   1.286       .  A
O2224     Co2232   2.058       .  S
O2225      C2237   1.273       .  A
O2225     Co2230   1.946       .  S
O2226      C2236   1.270       .  A
O2226     Co2229   2.075       .  S
O2227      C2234   1.284       .  A
O2227     Co3336   2.052       .  S
O2228      C2235   1.261       .  A
O2228     Co2231   2.027       .  S
Co2229     O3318   2.027   1_545  S
Co2229     O3325   1.928       .  S
Co2229     O2233   2.060       .  S
Co2230     O2233   2.015       .  S
Co2231     O2233   2.052       .  S
Co2232     O3316   1.961       .  S
Co2232     O3331   2.052   1_545  S
Co2232     O2233   2.030       .  S
C2234      C3274   1.456       .  S
C2235      C3284   1.464       .  S
C2236      C3254   1.482       .  S
C2237      C3244   1.481       .  S
O2238      C2246   1.234       .  A
O2238     Co2258   1.931       .  S
O2239      C2247   1.331       .  A
O2239     Co2259   2.139       .  S
O2240      C2248   1.290       .  A
O2240     Co2260   2.027       .  S
O2241     Co2261   2.124       .  S
O2242      C2248   1.288       .  A
O2242     Co2259   1.967       .  S
O2243      C2249   1.236       .  A
O2243     Co2258   1.909       .  S
O2244      C2247   1.272       .  A
O2244     Co2261   1.844       .  S
O2245     Co2260   2.035       .  S
C2246      C3297   1.466   1_455  S
C2247      C3214   1.473       .  S
C2248      C3277   1.466       .  S
C2249      C3227   1.498       .  S
O2250      C2263   1.271       .  A
O2250     Co2258   2.028   1_655  S
O2251      C2264   1.262       .  A
O2251     Co2259   2.020       .  S
O2252     Co2260   1.961       .  S
O2253      C2266   1.255       .  A
O2253     Co2261   1.987       .  S
O2254      C2266   1.251       .  A
O2254     Co2259   1.969       .  S
O2255      C2265   1.283       .  A
O2255     Co2258   2.033   1_655  S
O2256     Co2261   1.916       .  S
O2257      C2264   1.253       .  A
O2257     Co2260   1.953       .  S
Co2259     O2262   2.187       .  S
Co2260     O2262   2.043       .  S
Co2261     O2262   1.888       .  S
C2263      C3264   1.466       .  S
C2264      C3204   1.463       .  S
C2265      C3194   1.482       .  S
C2266      C3287   1.468       .  S
O2267     Co2287   2.039   1_455  S
O2268     Co2288   1.908       .  S
O2269      C2277   1.293       .  A
O2269     Co2289   2.088       .  S
O2270     Co2290   2.005       .  S
O2271      C2277   1.264   1_455  A
O2271     Co2288   1.947   1_455  S
O2272     Co2287   1.971   1_455  S
O2273     Co2290   2.095       .  S
O2274     Co2289   1.978       .  S
C2276      C3144   1.482       .  S
C2278      C3154   1.458   1_565  S
O2279      C2292   1.297       .  A
O2279     Co3391   2.100   1_545  S
O2280      C2293   1.267       .  A
O2280     Co2288   2.005       .  S
O2281      C2294   1.284       .  A
O2281     Co2289   2.039       .  S
O2282      C2295   1.266       .  A
O2282     Co2290   1.900       .  S
O2283      C2295   1.292       .  A
O2283     Co2288   2.105       .  S
O2284      C2294   1.261       .  A
O2284     Co2287   1.969       .  S
O2285      C2292   1.264   1_565  A
O2285     Co3394   1.942       .  S
O2286      C2293   1.263       .  A
O2286     Co2289   1.976       .  S
Co2287     O3383   2.100       .  S
Co2287     O2291   2.008       .  S
Co2288     O2291   1.997       .  S
Co2289     O2291   2.010       .  S
Co2290     O3389   1.942       .  S
Co2290     O2291   1.992       .  S
C2292      C3174   1.492       .  S
C2293      C3164   1.464       .  S
C2294      C3307   1.485       .  S
C2295      C3134   1.482       .  S
O2296      C2304   1.275       .  A
O2296     Co2316   2.069       .  S
O2297      C2305   1.271       .  A
O2297     Co2317   1.917       .  S
O2298      C2306   1.266       .  A
O2298     Co2318   2.024       .  S
O2299      C2307   1.280       .  A
O2299     Co2319   2.028       .  S
O2300      C2306   1.260       .  A
O2300     Co2317   2.009       .  S
O2301      C2307   1.269       .  A
O2301     Co2316   1.958       .  S
O2302      C2305   1.287       .  A
O2302     Co2319   2.069       .  S
O2303      C2304   1.233       .  A
O2303     Co2318   1.925       .  S
C2304      C3257   1.482       .  S
C2305      C3124   1.472       .  S
C2306      C3177   1.498       .  S
C2307      C3167   1.461       .  S
O2308      C2321   1.264       .  A
O2308     Co2316   2.024       .  S
O2309      C2322   1.278       .  A
O2309     Co2317   2.020       .  S
O2310      C2323   1.272       .  A
O2310     Co2318   2.071       .  S
O2311      C2324   1.272       .  A
O2311     Co2319   1.923       .  S
O2312      C2324   1.286       .  A
O2312     Co2317   2.067       .  S
O2313      C2323   1.230       .  A
O2313     Co2316   1.923       .  S
O2314      C2321   1.259       .  A
O2314     Co2319   2.011       .  S
O2315      C2322   1.269       .  A
O2315     Co2318   1.962       .  S
Co2316     O2320   2.059       .  S
Co2317     O2320   2.010       .  S
Co2318     O2320   2.069       .  S
Co2319     O2320   2.015       .  S
C2321      C3187   1.495       .  S
C2322      C3157   1.463       .  S
C2323      C3217   1.483       .  S
C2324      C3114   1.474       .  S
O2325      C2333   1.261       .  A
O2325     Co2345   1.985       .  S
O2326      C2334   1.307       .  A
O2326     Co2346   2.106       .  S
O2327      C2335   1.261   1_655  A
O2327     Co2347   1.989       .  S
O2328      C2336   1.273       .  A
O2328     Co2348   2.096       .  S
O2329      C2335   1.250       .  A
O2329     Co2346   1.933   1_455  S
O2330      C2336   1.251       .  A
O2330     Co2345   1.953       .  S
O2331      C2334   1.266       .  A
O2331     Co2348   1.883       .  S
O2332      C2333   1.261       .  A
O2332     Co2347   1.976       .  S
C2334      C3104   1.472       .  S
O2337      C2350   1.260       .  A
O2337     Co2345   1.989       .  S
O2338      C2351   1.273       .  A
O2338     Co2346   2.100       .  S
O2339      C2352   1.259       .  A
O2339     Co2347   1.979       .  S
O2340      C2353   1.306       .  A
O2340     Co2348   2.095       .  S
O2341      C2353   1.267       .  A
O2341     Co2346   1.882       .  S
O2342      C2352   1.260       .  A
O2342     Co2345   1.980       .  S
O2343      C2350   1.250       .  A
O2343     Co2348   1.936       .  S
O2344      C2351   1.251       .  A
O2344     Co2347   1.954       .  S
Co2345     O2349   2.071       .  S
Co2346     O2349   2.040       .  S
Co2347     O2349   2.069       .  S
Co2348     O2349   2.037       .  S
C2350      C3074   1.435       .  S
C2351      C3084   1.486       .  S
C2352      C3127   1.469       .  S
C2353      C3054   1.464       .  S
O2354      C2362   1.262       .  A
O2354     Co2374   1.988       .  S
O2355      C2363   1.306       .  A
O2355     Co2375   2.099       .  S
O2356      C2364   1.260       .  A
O2356     Co2376   1.988       .  S
O2357      C2365   1.271       .  A
O2357     Co2377   2.092       .  S
O2358      C2364   1.250       .  A
O2358     Co2375   1.935       .  S
O2359      C2365   1.251       .  A
O2359     Co2374   1.958       .  S
O2360      C2363   1.267       .  A
O2360     Co2377   1.886       .  S
O2361      C2362   1.262       .  A
O2361     Co2376   1.983       .  S
C2362      C3147   1.480       .  S
C2363      C3044   1.470       .  S
C2364      C4171   1.433       .  S
C2365      C3097   1.481       .  S
O2366      C2379   1.263       .  A
O2366     Co2374   1.991       .  S
O2367      C2380   1.272       .  A
O2367     Co2375   2.091       .  S
O2368      C2381   1.262       .  A
O2368     Co2376   1.985       .  S
O2369      C2382   1.307       .  A
O2369     Co2377   2.103       .  S
O2370      C2382   1.266       .  A
O2370     Co2375   1.893       .  S
O2371      C2381   1.262       .  A
O2371     Co2374   1.986       .  S
O2372      C2379   1.251       .  A
O2372     Co2377   1.933       .  S
O2373      C2380   1.252       .  A
O2373     Co2376   1.958       .  S
Co2374     O2378   2.074       .  S
Co2375     O2378   2.045       .  S
Co2376     O2378   2.072       .  S
Co2377     O2378   2.046       .  S
C2379      C3077   1.435       .  S
C2380      C4191   1.482       .  S
C2381      C3137   1.480       .  S
C2382      C3034   1.475       .  S
O2383      C2391   1.277       .  A
O2383     Co2403   1.869       .  S
O2384      C2392   1.272       .  A
O2384     Co2404   2.041       .  S
O2385     Co2405   1.945       .  S
O2386      C2394   1.238       .  A
O2386     Co2406   1.963       .  S
O2387     Co2404   2.040       .  S
O2388      C2394   1.260       .  A
O2388     Co2403   2.079       .  S
O2389      C2392   1.252       .  A
O2389     Co2406   1.935       .  S
O2390      C2391   1.316       .  A
O2390     Co2405   2.102       .  S
C2391      C3107   1.472       .  S
C2393      C2994   1.459       .  S
O2395      C2408   1.272       .  A
O2395     Co2403   1.942       .  S
O2396      C2409   1.235       .  A
O2396     Co2404   1.959       .  S
O2397      C2410   1.278       .  A
O2397     Co2405   1.870       .  S
O2398      C2411   1.273       .  A
O2398     Co2406   2.048       .  S
O2399      C2411   1.250       .  A
O2399     Co2404   1.932       .  S
O2400      C2410   1.315       .  A
O2400     Co2403   2.098       .  S
O2401      C2408   1.287       .  A
O2401     Co2406   2.042       .  S
O2402      C2409   1.260       .  A
O2402     Co2405   2.086       .  S
Co2403     O2407   2.030       .  S
Co2404     O2407   2.017       .  S
Co2405     O2407   2.036       .  S
Co2406     O2407   2.028       .  S
C2408      C3004   1.462       .  S
C2409      C3024   1.482       .  S
C2410      C3047   1.470       .  S
C2411      C2974   1.492       .  S
O2412      C2420   1.271       .  A
O2412     Co2432   1.869       .  S
O2413      C2421   1.261       .  A
O2413     Co2433   1.994       .  S
O2414      C2422   1.263       .  A
O2414     Co3538   1.950       .  S
O2415      C2423   1.243       .  A
O2415     Co2435   1.959       .  S
O2416      C2422   1.274       .  A
O2416     Co3537   2.024       .  S
O2417      C2423   1.268       .  A
O2417     Co2432   2.100       .  S
O2418      C2421   1.260       .  A
O2418     Co2435   1.968       .  S
O2419      C2420   1.312       .  A
O2419     Co2434   2.099       .  S
C2420      C3057   1.465       .  S
C2421      C2954   1.479       .  S
C2422      C2997   1.458       .  S
C2423      C3017   1.490       .  S
O2424      C2437   1.263       .  A
O2424     Co2432   1.953       .  S
O2425      C2438   1.246       .  A
O2425     Co3537   1.964       .  S
O2426      C2439   1.270       .  A
O2426     Co2434   1.876       .  S
O2427      C2440   1.258       .  A
O2427     Co2435   1.979       .  S
O2428      C2440   1.262       .  A
O2428     Co2433   1.974       .  S
O2429      C2439   1.314       .  A
O2429     Co2432   2.110       .  S
O2430      C2437   1.272       .  A
O2430     Co2435   2.022       .  S
O2431      C2438   1.267       .  A
O2431     Co3538   2.085       .  S
Co2432     O2436   2.054       .  S
Co2433     O3520   2.024   1_545  S
Co2433     O3529   1.964       .  S
Co2433     O2436   2.078       .  S
Co2434     O3518   1.950       .  S
Co2434     O3535   2.085   1_545  S
Co2434     O2436   2.053       .  S
Co2435     O2436   2.074       .  S
C2437      C3007   1.457       .  S
C2438      C3027   1.492       .  S
C2439      C3037   1.477       .  S
C2440      C2964   1.472       .  S
O2441      C2449   1.288       .  A
O2441     Co2461   2.077       .  S
O2442      C2450   1.248       .  A
O2442     Co2462   1.914       .  S
O2443      C2451   1.258       .  A
O2443     Co2463   1.987       .  S
O2444      C2452   1.259       .  A
O2444     Co2464   1.949       .  S
O2445      C2451   1.267       .  A
O2445     Co2462   2.023       .  S
O2446      C2452   1.272       .  A
O2446     Co2461   2.020       .  S
O2447      C2450   1.272       .  A
O2447     Co2464   2.024       .  S
O2448      C2449   1.270       .  A
O2448     Co2463   1.932       .  S
C2449      C3247   1.482       .  S
C2450      C2944   1.470       .  S
C2451      C2934   1.483       .  S
C2452      C4018   1.454   1_545  S
O2453      C2466   1.253       .  A
O2453     Co2461   1.967       .  S
O2454      C2467   1.258       .  A
O2454     Co2462   1.943       .  S
O2455      C2468   1.290       .  A
O2455     Co2463   2.096       .  S
O2456      C2469   1.243       .  A
O2456     Co2464   1.914       .  S
O2457      C2469   1.269       .  A
O2457     Co2462   2.022       .  S
O2458      C2468   1.267       .  A
O2458     Co2461   1.934       .  S
O2459      C2466   1.269   1_565  A
O2459     Co2464   2.029   1_565  S
O2460      C2467   1.273       .  A
O2460     Co2463   2.017       .  S
Co2461     O2465   2.025       .  S
Co2462     O2465   2.061       .  S
Co2463     O2465   2.037       .  S
Co2464     O2465   2.062       .  S
C2469      C2894   1.470       .  S
O2470      C2478   1.255       .  A
O2470     Co2490   1.970       .  S
O2471      C2479   1.270       .  A
O2471     Co2491   1.889       .  S
O2472      C2480   1.247       .  A
O2472     Co2492   1.943       .  S
O2473      C2481   1.260       .  A
O2473     Co2493   1.973       .  S
O2474      C2480   1.267       .  A
O2474     Co2491   2.071       .  S
O2475      C2481   1.259       .  A
O2475     Co2490   1.982       .  S
O2476      C2479   1.313       .  A
O2476     Co2493   2.111       .  S
O2477      C2478   1.264       .  A
O2477     Co2492   1.992       .  S
C2478      C3197   1.470       .  S
C2479      C2884   1.484       .  S
C2480      C2924   1.464       .  S
C2481      C2907   1.451       .  S
O2482      C2495   1.246       .  A
O2482     Co2490   1.943       .  S
O2483      C2496   1.263       .  A
O2483     Co2491   1.966       .  S
O2484      C2497   1.256       .  A
O2484     Co2492   1.966       .  S
O2485      C2498   1.267       .  A
O2485     Co2493   1.878       .  S
O2486      C2498   1.312       .  A
O2486     Co2491   2.109       .  S
O2487      C2497   1.257       .  A
O2487     Co2490   1.967       .  S
O2488      C2495   1.272       .  A
O2488     Co2493   2.100       .  S
O2489      C2496   1.268       .  A
O2489     Co2492   2.005       .  S
Co2490     O2494   2.070       .  S
Co2491     O2494   2.057       .  S
Co2492     O2494   2.077       .  S
Co2493     O2494   2.051       .  S
C2495      C2937   1.471       .  S
C2496      C2917   1.458       .  S
C2497      C3207   1.463       .  S
C2498      C2874   1.474       .  S
O2499      C2507   1.317       .  A
O2499     Co3623   2.121       .  S
O2500      C2508   1.258       .  A
O2500     Co2520   1.953       .  S
O2501      C2509   1.268       .  A
O2501     Co2521   2.097       .  S
O2502      C2510   1.276       .  A
O2502     Co2522   2.026   1_545  S
O2503      C2509   1.242       .  A
O2503     Co2520   1.962       .  S
O2504      C2510   1.266       .  A
O2504     Co2519   1.951   1_545  S
O2505      C2508   1.264       .  A
O2505     Co3626   2.004       .  S
O2506      C2507   1.271       .  A
O2506     Co2521   1.878       .  S
C2507      C2887   1.485       .  S
C2508      C2814   1.485       .  S
C2509      C2864   1.496       .  S
C2510      C2844   1.458       .  S
O2511      C2524   1.266   1_655  A
O2511     Co2519   2.107   1_545  S
O2512     Co2520   2.022       .  S
O2513      C2526   1.317       .  A
O2513     Co2521   2.116       .  S
O2514     Co3626   1.944   1_455  S
O2515     Co2520   2.022       .  S
O2516      C2526   1.270       .  A
O2516     Co3623   1.867       .  S
O2517      C2524   1.238       .  A
O2517     Co2522   1.959   1_445  S
O2518     Co2521   1.958   1_455  S
Co2519     O3603   2.121       .  S
Co2519     O3620   1.867   1_565  S
Co2519     O3627   2.053       .  S
Co2520     O2523   2.066       .  S
Co2521     O2523   2.057       .  S
Co2522     O3609   2.004       .  S
Co2522     O3618   1.944   1_655  S
Co2522     O3627   2.066       .  S
O2523     Co3623   2.053       .  S
O2523     Co3626   2.066       .  S
C2525      C2834   1.461       .  S
C2527      C2824   1.493       .  S
O2528      C2536   1.320       .  A
O2528     Co2548   2.116       .  S
O2529      C2537   1.252       .  A
O2529     Co2549   1.933       .  S
O2530      C2538   1.263       .  A
O2530     Co2550   2.092       .  S
O2531      C2539   1.287       .  A
O2531     Co2551   2.043       .  S
O2532      C2538   1.236       .  A
O2532     Co2549   1.962       .  S
O2533      C2539   1.274       .  A
O2533     Co2548   1.945       .  S
O2534      C2537   1.272       .  A
O2534     Co2551   2.043       .  S
O2535      C2536   1.276       .  A
O2535     Co2550   1.862       .  S
C2536      C2877   1.475       .  S
C2537      C2804   1.488       .  S
C2538      C2867   1.491       .  S
C2539      C2847   1.459       .  S
O2540      C2553   1.262       .  A
O2540     Co2548   2.098       .  S
O2541      C2554   1.288       .  A
O2541     Co2549   2.042       .  S
O2542      C2555   1.319       .  A
O2542     Co2550   2.112       .  S
O2543      C2556   1.249       .  A
O2543     Co2551   1.934       .  S
O2544      C2556   1.272       .  A
O2544     Co2549   2.052       .  S
O2545      C2555   1.276       .  A
O2545     Co2548   1.860       .  S
O2546      C2553   1.235       .  A
O2546     Co2551   1.961       .  S
O2547      C2554   1.275       .  A
O2547     Co2550   1.947       .  S
Co2548     O2552   2.026       .  S
Co2549     O2552   2.022       .  S
Co2550     O2552   2.026       .  S
Co2551     O2552   2.014       .  S
C2553      C2857   1.490       .  S
C2554      C2837   1.464       .  S
C2555      C2947   1.464       .  S
C2556      C2794   1.487       .  S
O2557      C2565   1.256       .  A
O2557     Co2577   1.948       .  S
O2558      C2566   1.311       .  A
O2558     Co2578   2.102       .  S
O2559      C2567   1.271       .  A
O2559     Co2579   2.012       .  S
O2560      C2568   1.268       .  A
O2560     Co2580   2.099       .  S
O2561      C2567   1.260       .  A
O2561     Co2578   1.940       .  S
O2562      C2568   1.245       .  A
O2562     Co2577   1.967       .  S
O2563      C2566   1.272       .  A
O2563     Co2580   1.881       .  S
O2564      C2565   1.262       .  A
O2564     Co2579   2.001       .  S
C2565      C2807   1.482       .  S
C2566      C2734   1.473       .  S
C2567      C2754   1.440       .  S
C2568      C2764   1.496       .  S
O2569     Co2577   2.001       .  S
O2570     Co2578   2.098       .  S
O2571     Co2579   1.952       .  S
O2572     Co2580   2.106       .  S
O2573     Co2578   1.875       .  S
O2574     Co2577   2.006       .  S
O2575     Co2580   1.948   1_455  S
O2576     Co2579   1.967   1_455  S
Co2577     O2581   2.077       .  S
Co2578     O2581   2.055       .  S
Co2579     O2581   2.075       .  S
Co2580     O2581   2.060       .  S
C2582      C2744   1.447       .  S
C2583      C2774   1.497       .  S
C2584      C2797   1.492       .  S
C2585      C2784   1.474       .  S
O2586      C2594   1.273       .  A
O2586     Co2606   2.051       .  S
O2587      C2595   1.279       .  A
O2587     Co2607   1.871       .  S
O2588      C2596   1.235       .  A
O2588     Co3712   1.963       .  S
O2589      C2597   1.268       .  A
O2589     Co2609   1.928       .  S
O2590      C2596   1.260       .  A
O2590     Co3711   2.088       .  S
O2591      C2597   1.284       .  A
O2591     Co2606   2.034       .  S
O2592      C2595   1.315       .  A
O2592     Co2609   2.102       .  S
O2593      C2594   1.248       .  A
O2593     Co2608   1.923       .  S
C2594      C2967   1.489       .  S
C2595      C2684   1.473       .  S
C2596      C2717   1.488       .  S
C2597      C2704   1.448       .  S
O2598      C2611   1.237       .  A
O2598     Co2606   1.959       .  S
O2599      C2612   1.273       .  A
O2599     Co3711   1.936       .  S
O2600      C2613   1.273       .  A
O2600     Co2608   2.052       .  S
O2601      C2614   1.276       .  A
O2601     Co2609   1.869       .  S
O2602      C2614   1.316       .  A
O2602     Co2607   2.107       .  S
O2603      C2613   1.250       .  A
O2603     Co2606   1.932       .  S
O2604      C2611   1.263       .  A
O2604     Co2609   2.091       .  S
O2605      C2612   1.286       .  A
O2605     Co3712   2.029       .  S
Co2606     O2610   2.027       .  S
Co2607     O3694   2.088   1_545  S
Co2607     O3703   1.936       .  S
Co2607     O2610   2.037       .  S
Co2608     O3692   1.963       .  S
Co2608     O3709   2.029   1_545  S
Co2608     O2610   2.016       .  S
Co2609     O2610   2.026       .  S
C2614      C2787   1.473       .  S
O2615      C2623   1.250       .  A
O2615     Co2635   1.934       .  S
O2616      C2624   1.315       .  A
O2616     Co2636   2.103       .  S
O2617      C2625   1.285       .  A
O2617     Co2637   2.033       .  S
O2618      C2626   1.261       .  A
O2618     Co3742   2.086   1_545  S
O2619      C2625   1.270       .  A
O2619     Co2636   1.926       .  S
O2620      C2626   1.236       .  A
O2620     Co3739   1.967   1_545  S
O2621      C2624   1.278       .  A
O2621     Co2638   1.871       .  S
O2622      C2623   1.275       .  A
O2622     Co2637   2.061       .  S
C2623      C2827   1.495       .  S
C2624      C2687   1.473       .  S
C2625      C2747   1.444       .  S
C2626      C2777   1.493       .  S
O2627      C2640   1.289       .  A
O2627     Co3739   2.038   1_545  S
O2628      C2641   1.261       .  A
O2628     Co2636   2.089       .  S
O2629      C2642   1.249       .  A
O2629     Co2637   1.931       .  S
O2630      C2643   1.314       .  A
O2630     Co2638   2.103       .  S
O2631      C2643   1.276       .  A
O2631     Co2636   1.867       .  S
O2632      C2642   1.273       .  A
O2632     Co2635   2.056       .  S
O2633      C2640   1.272   1_565  A
O2633     Co3742   1.927       .  S
O2634      C2641   1.237       .  A
O2634     Co2637   1.966       .  S
Co2635     O3724   1.967       .  S
Co2635     O3731   2.038       .  S
Co2635     O2639   2.015       .  S
Co2636     O2639   2.025       .  S
Co2637     O2639   2.023       .  S
Co2638     O3722   2.086       .  S
Co2638     O3737   1.927       .  S
Co2638     O2639   2.033       .  S
C2640      C2757   1.462       .  S
C2641      C2767   1.490       .  S
C2642      C2817   1.489       .  S
C2643      C2674   1.456       .  S
O2644      C2652   1.259       .  A
O2644     Co2664   1.986       .  S
O2645      C2653   1.270       .  A
O2645     Co2665   1.879       .  S
O2646      C2654   1.248       .  A
O2646     Co2666   1.971       .  S
O2647      C2655   1.260       .  A
O2647     Co2667   1.952       .  S
O2648      C2654   1.268       .  A
O2648     Co2665   2.092       .  S
O2649      C2655   1.266       .  A
O2649     Co2664   2.001       .  S
O2650      C2653   1.309       .  A
O2650     Co2667   2.098       .  S
O2651      C2652   1.262       .  A
O2651     Co2666   1.977       .  S
C2652      C2977   1.480       .  S
C2653      C2677   1.456       .  S
C2654      C2714   1.496       .  S
C2655      C2707   1.449       .  S
O2656      C2669   1.249       .  A
O2656     Co2664   1.970       .  S
O2657      C2670   1.259       .  A
O2657     Co2665   1.941       .  S
O2658      C2671   1.259       .  A
O2658     Co2666   1.989       .  S
O2659      C2672   1.271       .  A
O2659     Co2667   1.884       .  S
O2660      C2672   1.310       .  A
O2660     Co2665   2.100       .  S
O2661      C2671   1.260       .  A
O2661     Co2664   1.970       .  S
O2662      C2669   1.270       .  A
O2662     Co2667   2.097       .  S
O2663      C2670   1.269       .  A
O2663     Co2666   2.012       .  S
Co2664     O2668   2.079       .  S
Co2665     O2668   2.053       .  S
Co2666     O2668   2.082       .  S
Co2667     O2668   2.057       .  S
C2669      C2727   1.492       .  S
C2670      C2697   1.448       .  S
C2671      C2987   1.478       .  S
C2672      C2737   1.473       .  S
C2673      C2674   1.404       .  A
C2673      C2678   1.396       .  A
C2673      H2679   1.083       .  S
C2674      C2675   1.398       .  A
C2675      C2676   1.395       .  A
C2675      H2680   1.083       .  S
C2676      C2677   1.404       .  A
C2676      H2681   1.083       .  S
C2677      C2678   1.399       .  A
C2678      H2682   1.083       .  S
C2683      C2684   1.399       .  A
C2683      C2688   1.395       .  A
C2683      H2689   1.083       .  S
C2684      C3789   1.410   1_545  A
C2685      C3788   1.410       .  A
C2685      C2686   1.395       .  A
C2685      H2690   1.083       .  S
C2686      C2687   1.398       .  A
C2686      H2691   1.083       .  S
C2687      C3792   1.410       .  A
C2688      C3791   1.410   1_545  A
C2688      H2692   1.083       .  S
C2693      C2694   1.399       .  A
C2693      C2698   1.390       .  A
C2693      H3803   1.083       .  S
C2694      C2695   1.401       .  A
C2695      C2696   1.388       .  A
C2696      C2697   1.399       .  A
C2696      H2701   1.083       .  S
C2697      C2698   1.401       .  A
C2698      H2702   1.084       .  S
H2699      C3797   1.083   1_545  S
C2703      C2704   1.399       .  A
C2703      C2708   1.387       .  A
C2703      H2709   1.083       .  S
C2704      C2705   1.401       .  A
C2705      C2706   1.391       .  A
C2705      H2710   1.084       .  S
C2706      C2707   1.400       .  A
C2706      H2711   1.083       .  S
C2707      C2708   1.401       .  A
C2708      H2712   1.084       .  S
C2713      C2714   1.410       .  A
C2713      C2718   1.408       .  A
C2713      H2719   1.083       .  S
C2714      C2715   1.406       .  A
C2715      C2716   1.408       .  A
C2715      H2720   1.084       .  S
C2716      C2717   1.408       .  A
C2716      H3825   1.083       .  S
C2717      C2718   1.404       .  A
C2718      H2722   1.084       .  S
H2721      C3820   1.083       .  S
C2723      C2724   1.410       .  A
C2723      C2728   1.405       .  A
C2723      H2729   1.083       .  S
C2724      C2725   1.405       .  A
C2725      C2726   1.411       .  A
C2726      C2727   1.410       .  A
C2726      H2731   1.082       .  S
C2727      C2728   1.403       .  A
C2728      H2732   1.084       .  S
C2733      C2734   1.412       .  A
C2733      C2738   1.395       .  A
C2733      H2739   1.083       .  S
C2734      C2735   1.397       .  A
C2735      C2736   1.395       .  A
C2735      H2740   1.083       .  S
C2736      C2737   1.412       .  A
C2736      H2741   1.083       .  S
C2737      C2738   1.397       .  A
C2738      H2742   1.083       .  S
C2743      C2744   1.401       .  A
C2743      C2748   1.385       .  A
C2744      C2745   1.399       .  A
C2745      C2746   1.391       .  A
C2745      H2750   1.083       .  S
C2746      C2747   1.401       .  A
C2746      H2751   1.084       .  S
C2747      C2748   1.397       .  A
C2748      H2752   1.083       .  S
C2753      C2754   1.395       .  A
C2753      C2758   1.387       .  A
C2753      H2759   1.084       .  S
C2754      C2755   1.396       .  A
C2755      C2756   1.391       .  A
C2755      H2760   1.083       .  S
C2756      C2757   1.405       .  A
C2756      H2761   1.083       .  S
C2757      C2758   1.405       .  A
C2758      H2762   1.083       .  S
C2763      C2764   1.405       .  A
C2763      C2768   1.409       .  A
C2763      H2769   1.083       .  S
C2764      C2765   1.411       .  A
C2765      C2766   1.408       .  A
C2765      H2770   1.083       .  S
C2766      C2767   1.403       .  A
C2766      H2771   1.084       .  S
C2767      C2768   1.410       .  A
C2768      H2772   1.083       .  S
C2773      C2774   1.411       .  A
C2773      C2778   1.409       .  A
C2773      H2779   1.083       .  S
C2774      C2775   1.405       .  A
C2775      C2776   1.409       .  A
C2776      C2777   1.411       .  A
C2776      H2781   1.083       .  S
C2777      C2778   1.404       .  A
C2778      H2782   1.084       .  S
C2783      C2784   1.397       .  A
C2783      C2788   1.397       .  A
C2783      H2789   1.083       .  S
C2785      C2786   1.393       .  A
C2785      H2790   1.083       .  S
C2786      H2791   1.083       .  S
C2787      C2788   1.412       .  A
C2788      H2792   1.083       .  S
C2793      C2794   1.409       .  A
C2793      C2798   1.418       .  A
C2793      H2799   1.082       .  S
C2794      C2795   1.404       .  A
C2795      C2796   1.383       .  A
C2795      H2800   1.084       .  S
C2796      C2797   1.403       .  A
C2796      H2801   1.083       .  S
C2797      C2798   1.413       .  A
C2798      H2802   1.082       .  S
C2803      C2804   1.406       .  A
C2803      C2808   1.383       .  A
C2803      H2809   1.083       .  S
C2804      C2805   1.410       .  A
C2805      C2806   1.415       .  A
C2805      H2810   1.083       .  S
C2806      C2807   1.410       .  A
C2806      H2811   1.082       .  S
C2807      C2808   1.400       .  A
C2808      H2812   1.084       .  S
C2813      C2814   1.412       .  A
C2813      C2818   1.417       .  A
C2813      H2819   1.083       .  S
C2814      C2815   1.399       .  A
C2815      C2816   1.384       .  A
C2815      H2820   1.084       .  S
C2816      C2817   1.407       .  A
C2816      H2821   1.083       .  S
C2817      C2818   1.409       .  A
C2818      H2822   1.082       .  S
C2823      C2824   1.413       .  A
C2823      C2828   1.422       .  A
C2823      H2829   1.082       .  S
C2824      C2825   1.402       .  A
C2825      C2826   1.383       .  A
C2825      H3934   1.084       .  S
C2826      C2827   1.405       .  A
C2826      H3935   1.083       .  S
C2827      C2828   1.412       .  A
C2828      H2832   1.082       .  S
H2830      C3929   1.084       .  S
H2831      C3930   1.083       .  S
C2833      C2834   1.400       .  A
C2833      C2838   1.396       .  A
C2833      H2839   1.083       .  S
C2834      C2835   1.403       .  A
C2835      C2836   1.393       .  A
C2836      C2837   1.401       .  A
C2836      H2841   1.083       .  S
C2837      C2838   1.405       .  A
C2838      H2842   1.084       .  S
C2843      C2844   1.400       .  A
C2843      C2848   1.394       .  A
C2843      H2849   1.083       .  S
C2844      C2845   1.403       .  A
C2845      C2846   1.393       .  A
C2845      H2850   1.084       .  S
C2846      C2847   1.400       .  A
C2846      H2851   1.083       .  S
C2847      C2848   1.404       .  A
C2848      H2852   1.084       .  S
C2853      C2854   1.403       .  A
C2853      C2858   1.408       .  A
C2853      H2859   1.083       .  S
C2854      C2855   1.412       .  A
C2855      C2856   1.407       .  A
C2855      H2860   1.083       .  S
C2856      C2857   1.402       .  A
C2856      H2861   1.084       .  S
C2857      C2858   1.411       .  A
C2858      H2862   1.083       .  S
C2863      C2864   1.412       .  A
C2863      C2868   1.407       .  A
C2863      H2869   1.083       .  S
C2864      C2865   1.404       .  A
C2865      C2866   1.410       .  A
C2865      H2870   1.083       .  S
C2866      C2867   1.411       .  A
C2866      H2871   1.083       .  S
C2867      C2868   1.402       .  A
C2868      H2872   1.084       .  S
C2873      C2874   1.395       .  A
C2873      C2878   1.396       .  A
C2873      H2879   1.083       .  S
C2874      C2875   1.414       .  A
C2875      C2876   1.395       .  A
C2875      H2880   1.083       .  S
C2876      C2877   1.395       .  A
C2876      H2881   1.083       .  S
C2877      C2878   1.414       .  A
C2878      H2882   1.083       .  S
C2883      C2884   1.397       .  A
C2883      C2888   1.399       .  A
C2883      H2889   1.083       .  S
C2884      C2885   1.415       .  A
C2885      C2886   1.401       .  A
C2885      H2890   1.083       .  S
C2886      C2887   1.398       .  A
C2886      H2891   1.083       .  S
C2887      C2888   1.415       .  A
C2888      H2892   1.083       .  S
C2893      C2894   1.415       .  A
C2893      C2898   1.391       .  A
C2893      H2899   1.084       .  S
C2895      C2896   1.398       .  A
C2895      H2900   1.083       .  S
C2896      H2901   1.083       .  S
C2897      C2898   1.391       .  A
C2898      H4006   1.083   1_545  S
H2902      C4002   1.083       .  S
C2903      C2904   1.398       .  A
C2903      C2908   1.384       .  A
C2903      H2909   1.083       .  S
C2904      C2905   1.403       .  A
C2905      C2906   1.396       .  A
C2906      C2907   1.400       .  A
C2906      H2911   1.083       .  S
C2907      C2908   1.401       .  A
C2908      H2912   1.084       .  S
C2913      C2914   1.403       .  A
C2913      C2918   1.396       .  A
C2913      H2919   1.084       .  S
C2914      C3556   1.454       .  S
C2914      C2915   1.399       .  A
C2915      C2916   1.390       .  A
C2915      H4024   1.083       .  S
C2916      C2917   1.402       .  A
C2916      H2921   1.084       .  S
C2917      C2918   1.401       .  A
C2918      H2922   1.083       .  S
H2920      C4019   1.083   1_545  S
C2923      C2924   1.399       .  A
C2923      C2928   1.392       .  A
C2923      H2929   1.084       .  S
C2924      C2925   1.403       .  A
C2925      C2926   1.404       .  A
C2925      H2930   1.083       .  S
C2926      C2927   1.408       .  A
C2927      C2928   1.406       .  A
C2928      H4036   1.082       .  S
H2932      C4032   1.082   1_545  S
C2933      C2934   1.406       .  A
C2933      C2938   1.400       .  A
C2933      H2939   1.083       .  S
C2934      C2935   1.406       .  A
C2935      C2936   1.402       .  A
C2935      H2940   1.083       .  S
C2936      C2937   1.403       .  A
C2936      H2941   1.083       .  S
C2937      C2938   1.402       .  A
C2938      H2942   1.084       .  S
C2943      C2944   1.414       .  A
C2943      C2948   1.388       .  A
C2943      H2949   1.084       .  S
C2944      C2945   1.395       .  A
C2945      C2946   1.399       .  A
C2945      H2950   1.083       .  S
C2946      C2947   1.414       .  A
C2946      H2951   1.083       .  S
C2947      C2948   1.390       .  A
C2948      H2952   1.083       .  S
C2953      C2954   1.396       .  A
C2953      C2958   1.388       .  A
C2953      H2959   1.084       .  S
C2954      C2955   1.410       .  A
C2955      C2956   1.416       .  A
C2955      H2960   1.083   1_545  S
C2956      C2957   1.410       .  A
C2957      C2958   1.411       .  A
C2958      H2962   1.083       .  S
C2963      C2964   1.410       .  A
C2963      C2968   1.413       .  A
C2963      H2969   1.082       .  S
C2964      C2965   1.394       .  A
C2965      C2966   1.386       .  A
C2965      H2970   1.084       .  S
C2966      C2967   1.412       .  A
C2966      H2971   1.083       .  S
C2967      C2968   1.408       .  A
C2968      H2972   1.083       .  S
C2973      C2974   1.411       .  A
C2973      C2978   1.387       .  A
C2973      H2979   1.083       .  S
C2974      C2975   1.409       .  A
C2975      C2976   1.414       .  A
C2975      H2980   1.083       .  S
C2976      C2977   1.411       .  A
C2976      H2981   1.083       .  S
C2977      C2978   1.397       .  A
C2978      H2982   1.084       .  S
C2983      C2984   1.409       .  A
C2983      C2988   1.387       .  A
C2983      H2989   1.083       .  S
C2984      C2985   1.409       .  A
C2985      C2986   1.413       .  A
C2986      C2987   1.409       .  A
C2986      H2991   1.083       .  S
C2987      C2988   1.398       .  A
C2988      H2992   1.084       .  S
C2993      C2994   1.403       .  A
C2993      C2998   1.393       .  A
C2994      C2995   1.401       .  A
C2995      C2996   1.394       .  A
C2995      H3000   1.083       .  S
C2996      C2997   1.403       .  A
C2996      H3001   1.084       .  S
C2997      C2998   1.400       .  A
C2998      H3002   1.083       .  S
C3003      C3004   1.402       .  A
C3003      C3008   1.393       .  A
C3003      H3009   1.083       .  S
C3004      C3005   1.404       .  A
C3005      C3006   1.394       .  A
C3005      H3010   1.084       .  S
C3006      C3007   1.400       .  A
C3006      H3011   1.083       .  S
C3007      C3008   1.402       .  A
C3008      H3012   1.084       .  S
C3013      C3014   1.409       .  A
C3013      C3018   1.406       .  A
C3013      H3019   1.083       .  S
C3014      C3015   1.402       .  A
C3015      C3016   1.406       .  A
C3016      C3017   1.410       .  A
C3016      H3021   1.083       .  S
C3017      C3018   1.404       .  A
C3018      H3022   1.084       .  S
C3023      C3024   1.402       .  A
C3023      C3028   1.405       .  A
C3023      H3029   1.084       .  S
C3024      C3025   1.408       .  A
C3025      C3026   1.407       .  A
C3025      H3030   1.083       .  S
C3026      C3027   1.405       .  A
C3026      H3031   1.083       .  S
C3027      C3028   1.410       .  A
C3028      H3032   1.083       .  S
C3033      C3034   1.413       .  A
C3033      C4142   1.399   1_554  A
C3033      H3039   1.083       .  S
C3034      C3035   1.396       .  A
C3035      C3036   1.395       .  A
C3035      H3040   1.083       .  S
C3036      C4141   1.413   1_554  A
C3036      H3041   1.083       .  S
C3037      C4140   1.413   1_546  A
C3037      C3038   1.398       .  A
C3038      C4137   1.399   1_556  A
C3038      H3042   1.083       .  S
C3043      C3044   1.411       .  A
C3043      C3048   1.392   1_554  A
C3043      H3049   1.083       .  S
C3044      C3045   1.397       .  A
C3045      C3046   1.395       .  A
C3045      H3050   1.083       .  S
C3046      C3047   1.411   1_554  A
C3046      H3051   1.083       .  S
C3047      C3048   1.396       .  A
C3048      H3052   1.083       .  S
C3053      C3054   1.410       .  A
C3053      C3058   1.394       .  A
C3053      H3059   1.083       .  S
C3054      C3055   1.395       .  A
C3055      C3056   1.390       .  A
C3055      H3060   1.083       .  S
C3056      C3057   1.410   1_554  A
C3056      H3061   1.083       .  S
C3057      C3058   1.396   1_556  A
C3058      H3062   1.083   1_554  S
C3063      C3064   1.400       .  A
C3063      C3068   1.383       .  A
C3064      C3065   1.396       .  A
C3065      C3066   1.383       .  A
C3065      H3070   1.083       .  S
C3066      C3067   1.400       .  A
C3066      H3071   1.084       .  S
C3067      C3468   1.433   1_545  S
C3067      C3068   1.396       .  A
C3068      H4176   1.083   1_545  S
H3072      C4172   1.083       .  S
C3073      C3074   1.400       .  A
C3073      C3078   1.383       .  A
C3073      H3079   1.084       .  S
C3074      C3075   1.396       .  A
C3075      C3076   1.383       .  A
C3075      H3080   1.083       .  S
C3076      C3077   1.400       .  A
C3076      H3081   1.084       .  S
C3077      C3078   1.396       .  A
C3078      H3082   1.083       .  S
C3083      C3084   1.406       .  A
C3083      C3088   1.408       .  A
C3083      H3089   1.084       .  S
C3084      C3085   1.407       .  A
C3085      C3086   1.403       .  A
C3085      H3090   1.083       .  S
C3086      C3087   1.403       .  A
C3086      H3091   1.084       .  S
C3087      C3484   1.482       .  S
C3087      C3088   1.407       .  A
C3088      H4196   1.083   1_545  S
H3092      C4192   1.083       .  S
C3093      C3094   1.404       .  A
C3093      C3098   1.405       .  A
C3094      C3095   1.406       .  A
C3095      C3096   1.404       .  A
C3095      H3100   1.083       .  S
C3096      C3097   1.404       .  A
C3096      H3101   1.084       .  S
C3097      C3098   1.406       .  A
C3098      H3102   1.083       .  S
C3103      C3104   1.412       .  A
C3103      C3108   1.393   1_554  A
C3103      H3109   1.083       .  S
C3105      C3106   1.396       .  A
C3105      H3110   1.083       .  S
C3106      C3107   1.412   1_554  A
C3106      H3111   1.083       .  S
C3108      H3112   1.083       .  S
C3113      C3114   1.409       .  A
C3113      C3118   1.395       .  A
C3113      H3119   1.083       .  S
C3114      C3115   1.401       .  A
C3115      C3116   1.399       .  A
C3115      H3120   1.083       .  S
C3116      C3117   1.408       .  A
C3116      H3121   1.083       .  S
C3117      C3118   1.399       .  A
C3123      C3124   1.408       .  A
C3123      C3128   1.396       .  A
C3123      H3129   1.083       .  S
C3124      C3125   1.400       .  A
C3125      C3126   1.396       .  A
C3125      H3130   1.083       .  S
C3126      C3127   1.407       .  A
C3126      H3131   1.083       .  S
C3127      C3128   1.399       .  A
C3128      H3132   1.083       .  S
C3133      C3134   1.403       .  A
C3133      C3138   1.396       .  A
C3133      H3139   1.083       .  S
C3134      C3135   1.410       .  A
C3135      C3136   1.403       .  A
C3135      H3140   1.083       .  S
C3136      C3137   1.403       .  A
C3136      H3141   1.083       .  S
C3137      C3138   1.407       .  A
C3138      H3142   1.083       .  S
C3143      C3144   1.403       .  A
C3143      C3148   1.399       .  A
C3144      C3145   1.410       .  A
C3145      C3146   1.399       .  A
C3145      H3150   1.083       .  S
C3146      C3147   1.402       .  A
C3146      H3151   1.083       .  S
C3147      C3148   1.408       .  A
C3148      H3152   1.083       .  S
C3153      C3154   1.401       .  A
C3153      C3158   1.396       .  A
C3154      C3155   1.401       .  A
C3155      C3156   1.394       .  A
C3155      H4264   1.083   1_545  S
C3156      C3157   1.402       .  A
C3156      H3161   1.084       .  S
C3157      C3158   1.403       .  A
C3158      H3162   1.083       .  S
H3160      C4259   1.083       .  S
C3163      C3164   1.402       .  A
C3163      C3168   1.397       .  A
C3163      H3169   1.084       .  S
C3164      C3165   1.403       .  A
C3165      C3166   1.395       .  A
C3165      H3170   1.083       .  S
C3166      C3167   1.401       .  A
C3166      H3171   1.084       .  S
C3167      C3168   1.402       .  A
C3168      H3172   1.083       .  S
C3173      C3174   1.408       .  A
C3173      C3178   1.402       .  A
C3173      H4283   1.083   1_545  S
C3174      C3175   1.406       .  A
C3175      C3176   1.413       .  A
C3175      H3180   1.083       .  S
C3176      C3177   1.412       .  A
C3176      H3181   1.082       .  S
C3177      C3178   1.405       .  A
C3178      H3182   1.083       .  S
H3179      C4277   1.083       .  S
C3183      C3184   1.407       .  A
C3183      C3188   1.402       .  A
C3183      H3189   1.083       .  S
C3184      C3185   1.406       .  A
C3185      C3186   1.412       .  A
C3186      C3187   1.411       .  A
C3186      H3191   1.082       .  S
C3187      C3188   1.405       .  A
C3188      H3192   1.083       .  S
C3193      C3194   1.406       .  A
C3193      C3198   1.392       .  A
C3193      H3199   1.083       .  S
C3194      C3195   1.410       .  A
C3195      C3196   1.404       .  A
C3196      C3197   1.403       .  A
C3196      H3201   1.083       .  S
C3197      C3198   1.400       .  A
C3198      H3202   1.084       .  S
C3203      C3204   1.404       .  A
C3203      C3208   1.399       .  A
C3203      H3209   1.083       .  S
C3204      C3205   1.401       .  A
C3205      C3206   1.389       .  A
C3205      H3210   1.084       .  S
C3206      C3207   1.402       .  A
C3206      H3211   1.083       .  S
C3207      C3208   1.403       .  A
C3208      H3212   1.083       .  S
C3213      C3214   1.416       .  A
C3213      C3218   1.399       .  A
C3213      H3219   1.084       .  S
C3214      C3215   1.392       .  A
C3215      C3216   1.397       .  A
C3215      H3220   1.082       .  S
C3216      C3217   1.420       .  A
C3216      H3221   1.083       .  S
C3217      C3218   1.396       .  A
C3218      H3222   1.082       .  S
C3223      C3228   1.405       .  A
C3223      H3229   1.083       .  S
C3224      C3225   1.417       .  A
C3225      C3226   1.410       .  A
C3225      H3230   1.080       .  S
C3226      C3227   1.399       .  A
C3226      H3231   1.082       .  S
C3228      H3232   1.084       .  S
C3233      C3234   1.407       .  A
C3233      C3238   1.410       .  A
C3233      H3239   1.082   1_545  S
C3234      C3235   1.407       .  A
C3235      C3236   1.400       .  A
C3235      H3240   1.083       .  S
C3236      C3237   1.403       .  A
C3236      H3241   1.083       .  S
C3237      C3238   1.410       .  A
C3238      H3242   1.083   1_545  S
C3243      C3244   1.404       .  A
C3243      C3248   1.393       .  A
C3243      H3249   1.083       .  S
C3244      C3245   1.407       .  A
C3245      C3246   1.409       .  A
C3245      H3250   1.083       .  S
C3246      C3247   1.408       .  A
C3246      H3251   1.083       .  S
C3247      C3248   1.403       .  A
C3248      H3252   1.083       .  S
C3253      C3254   1.417       .  A
C3253      C3258   1.398       .  A
C3253      H3259   1.083       .  S
C3254      C3255   1.397       .  A
C3255      C3256   1.399       .  A
C3255      H3260   1.082       .  S
C3256      C3257   1.418       .  A
C3256      H3261   1.084       .  S
C3257      C3258   1.396       .  A
C3258      H3262   1.082       .  S
C3263      C3264   1.402       .  A
C3263      C3268   1.388       .  A
C3264      C3265   1.404       .  A
C3265      C3266   1.404       .  A
C3265      H3270   1.083       .  S
C3266      C3267   1.407       .  A
C3266      H3271   1.083       .  S
C3267      C3268   1.402       .  A
C3268      H3272   1.083       .  S
C3273      C3274   1.403       .  A
C3273      C3278   1.391       .  A
C3273      H3279   1.085       .  S
C3274      C3275   1.400       .  A
C3275      C3276   1.401       .  A
C3275      H3280   1.083       .  S
C3276      C3277   1.409       .  A
C3276      H3281   1.084       .  S
C3277      C3278   1.401       .  A
C3278      H3282   1.083       .  S
C3283      C3284   1.396       .  A
C3283      C3288   1.390       .  A
C3283      H3289   1.084       .  S
C3284      C3285   1.407       .  A
C3285      C3286   1.401       .  A
C3285      H3290   1.083       .  S
C3286      C3287   1.402       .  A
C3286      H3291   1.084       .  S
C3287      C3288   1.408       .  A
C3288      H3292   1.083       .  S
C3293      C3294   1.411       .  A
C3293      C3298   1.398       .  A
C3293      H3299   1.080       .  S
C3294      C3295   1.397       .  A
C3295      C3296   1.393       .  A
C3295      H3300   1.083       .  S
C3296      C3297   1.409       .  A
C3296      H3301   1.083       .  S
C3297      C3298   1.396       .  A
C3303      C3304   1.404       .  A
C3303      C3308   1.415       .  A
C3303      H3309   1.082       .  S
C3304      C4409   1.419   1_545  A
C3305      C4408   1.419       .  A
C3305      C3306   1.399       .  A
C3305      H3310   1.083       .  S
C3306      C3307   1.396       .  A
C3306      H3311   1.083       .  S
C3307      C4412   1.416       .  A
C3308      C4411   1.416   1_545  A
C3308      H3312   1.080       .  S
O3313      C3321   1.240       .  A
O3313     Co3333   1.925       .  S
O3314      C3322   1.289       .  A
O3314     Co3334   2.065       .  S
O3315      C3323   1.266       .  A
O3315     Co3335   1.935       .  S
O3316      C3324   1.246   1_545  A
O3317      C3323   1.287       .  A
O3317     Co3334   2.054       .  S
O3318      C3324   1.266       .  A
O3319      C3322   1.277       .  A
O3319     Co3336   1.948       .  S
O3320      C3321   1.283       .  A
O3320     Co3335   2.107       .  S
C3321      C4408   1.506       .  S
C3322      C4338   1.490       .  S
C3323      C4371   1.469       .  S
C3324      C4398   1.471       .  S
O3325      C3338   1.255   1_545  A
O3326      C3339   1.242       .  A
O3326     Co3334   1.981       .  S
O3327      C3340   1.228       .  A
O3327     Co3335   1.928       .  S
O3328      C3341   1.286       .  A
O3328     Co3336   2.058       .  S
O3329      C3341   1.273       .  A
O3329     Co3334   1.946       .  S
O3330      C3340   1.270       .  A
O3330     Co3333   2.075       .  S
O3331      C3338   1.284       .  A
O3332      C3339   1.261       .  A
O3332     Co3335   2.027       .  S
Co3333     O3337   2.060       .  S
Co3334     O3337   2.015       .  S
Co3335     O3337   2.052       .  S
Co3336     O3337   2.030       .  S
C3338      C4378   1.456       .  S
C3339      C4388   1.464       .  S
C3340      C4358   1.482       .  S
C3341      C4348   1.481       .  S
O3342      C3350   1.234       .  A
O3342     Co3362   1.931       .  S
O3343      C3351   1.331       .  A
O3343     Co3363   2.139       .  S
O3344      C3352   1.290       .  A
O3344     Co3364   2.027       .  S
O3345     Co3365   2.124       .  S
O3346      C3352   1.288       .  A
O3346     Co3363   1.967       .  S
O3347      C3353   1.236       .  A
O3347     Co3362   1.909       .  S
O3348      C3351   1.272       .  A
O3348     Co3365   1.844       .  S
O3349     Co3364   2.035       .  S
C3350      C4401   1.466   1_455  S
C3351      C4318   1.473       .  S
C3352      C4381   1.466       .  S
C3353      C4331   1.498       .  S
O3354      C3367   1.271       .  A
O3354     Co3362   2.028   1_655  S
O3355      C3368   1.262       .  A
O3355     Co3363   2.020       .  S
O3356     Co3364   1.961       .  S
O3357      C3370   1.255       .  A
O3357     Co3365   1.987       .  S
O3358      C3370   1.251       .  A
O3358     Co3363   1.969       .  S
O3359      C3369   1.283       .  A
O3359     Co3362   2.033   1_655  S
O3360     Co3365   1.916       .  S
O3361      C3368   1.253       .  A
O3361     Co3364   1.953       .  S
Co3363     O3366   2.187       .  S
Co3364     O3366   2.043       .  S
Co3365     O3366   1.888       .  S
C3367      C4368   1.466       .  S
C3368      C4308   1.463       .  S
C3369      C4298   1.482       .  S
C3370      C4391   1.468       .  S
O3371     Co3391   2.039   1_455  S
O3372     Co3392   1.908       .  S
O3373      C3381   1.293       .  A
O3373     Co3393   2.088       .  S
O3374     Co3394   2.005       .  S
O3375      C3381   1.264   1_455  A
O3375     Co3392   1.947   1_455  S
O3376     Co3391   1.971   1_455  S
O3377     Co3394   2.095       .  S
O3378     Co3393   1.978       .  S
C3380      C4248   1.482       .  S
C3382      C4258   1.458       .  S
O3383      C3396   1.297       .  A
O3384      C3397   1.267       .  A
O3384     Co3392   2.005       .  S
O3385      C3398   1.284       .  A
O3385     Co3393   2.039       .  S
O3386      C3399   1.266       .  A
O3386     Co3394   1.900       .  S
O3387      C3399   1.292       .  A
O3387     Co3392   2.105       .  S
O3388      C3398   1.261       .  A
O3388     Co3391   1.969       .  S
O3389      C3396   1.264       .  A
O3390      C3397   1.263       .  A
O3390     Co3393   1.976       .  S
Co3391     O3395   2.008       .  S
Co3392     O3395   1.997       .  S
Co3393     O3395   2.010       .  S
Co3394     O3395   1.992       .  S
C3396      C4278   1.492       .  S
C3397      C4268   1.464       .  S
C3398      C4411   1.485       .  S
C3399      C4238   1.482       .  S
O3400      C3408   1.275       .  A
O3400     Co3420   2.069       .  S
O3401      C3409   1.271       .  A
O3401     Co3421   1.917       .  S
O3402      C3410   1.266       .  A
O3402     Co3422   2.024       .  S
O3403      C3411   1.280       .  A
O3403     Co3423   2.028       .  S
O3404      C3410   1.260       .  A
O3404     Co3421   2.009       .  S
O3405      C3411   1.269       .  A
O3405     Co3420   1.958       .  S
O3406      C3409   1.287       .  A
O3406     Co3423   2.069       .  S
O3407      C3408   1.233       .  A
O3407     Co3422   1.925       .  S
C3408      C4361   1.482       .  S
C3409      C4228   1.472       .  S
C3410      C4281   1.498       .  S
C3411      C4271   1.461       .  S
O3412      C3425   1.264       .  A
O3412     Co3420   2.024       .  S
O3413      C3426   1.278       .  A
O3413     Co3421   2.020       .  S
O3414      C3427   1.272       .  A
O3414     Co3422   2.071       .  S
O3415      C3428   1.272       .  A
O3415     Co3423   1.923       .  S
O3416      C3428   1.286       .  A
O3416     Co3421   2.067       .  S
O3417      C3427   1.230       .  A
O3417     Co3420   1.923       .  S
O3418      C3425   1.259       .  A
O3418     Co3423   2.011       .  S
O3419      C3426   1.269       .  A
O3419     Co3422   1.962       .  S
Co3420     O3424   2.059       .  S
Co3421     O3424   2.010       .  S
Co3422     O3424   2.069       .  S
Co3423     O3424   2.015       .  S
C3425      C4291   1.495       .  S
C3426      C4261   1.463       .  S
C3427      C4321   1.483       .  S
C3428      C4218   1.474       .  S
O3429      C3437   1.261       .  A
O3429     Co3449   1.985       .  S
O3430      C3438   1.307       .  A
O3430     Co3450   2.106       .  S
O3431      C3439   1.261   1_655  A
O3431     Co3451   1.989       .  S
O3432      C3440   1.273       .  A
O3432     Co3452   2.096       .  S
O3433      C3439   1.250       .  A
O3433     Co3450   1.933   1_455  S
O3434      C3440   1.251       .  A
O3434     Co3449   1.953       .  S
O3435      C3438   1.266       .  A
O3435     Co3452   1.883       .  S
O3436      C3437   1.261       .  A
O3436     Co3451   1.976       .  S
C3438      C4208   1.472       .  S
O3441      C3454   1.260       .  A
O3441     Co3449   1.989       .  S
O3442      C3455   1.273       .  A
O3442     Co3450   2.100       .  S
O3443      C3456   1.259       .  A
O3443     Co3451   1.979       .  S
O3444      C3457   1.306       .  A
O3444     Co3452   2.095       .  S
O3445      C3457   1.267       .  A
O3445     Co3450   1.882       .  S
O3446      C3456   1.260       .  A
O3446     Co3449   1.980       .  S
O3447      C3454   1.250       .  A
O3447     Co3452   1.936       .  S
O3448      C3455   1.251       .  A
O3448     Co3451   1.954       .  S
Co3449     O3453   2.071       .  S
Co3450     O3453   2.040       .  S
Co3451     O3453   2.069       .  S
Co3452     O3453   2.037       .  S
C3454      C4178   1.435       .  S
C3455      C4188   1.486       .  S
C3456      C4231   1.469       .  S
C3457      C4158   1.464       .  S
O3458      C3466   1.262       .  A
O3458     Co3478   1.988       .  S
O3459      C3467   1.306       .  A
O3459     Co3479   2.099       .  S
O3460      C3468   1.260   1_545  A
O3460     Co3480   1.988   1_545  S
O3461      C3469   1.271       .  A
O3461     Co3481   2.092       .  S
O3462      C3468   1.250       .  A
O3462     Co3479   1.935       .  S
O3463      C3469   1.251       .  A
O3463     Co3478   1.958       .  S
O3464      C3467   1.267       .  A
O3464     Co3481   1.886       .  S
O3465      C3466   1.262       .  A
O3465     Co3480   1.983       .  S
C3466      C4251   1.480       .  S
C3467      C4148   1.470       .  S
C3469      C4201   1.481       .  S
O3470      C3483   1.263       .  A
O3470     Co3478   1.991       .  S
O3471      C3484   1.272   1_565  A
O3471     Co3479   2.091       .  S
O3472      C3485   1.262       .  A
O3472     Co3480   1.985       .  S
O3473      C3486   1.307       .  A
O3473     Co3481   2.103       .  S
O3474      C3486   1.266       .  A
O3474     Co3479   1.893       .  S
O3475      C3485   1.262       .  A
O3475     Co3478   1.986       .  S
O3476      C3483   1.251       .  A
O3476     Co3481   1.933       .  S
O3477      C3484   1.252   1_565  A
O3477     Co3480   1.958       .  S
Co3478     O3482   2.074       .  S
Co3479     O3482   2.045       .  S
Co3480     O3482   2.072       .  S
Co3481     O3482   2.046       .  S
C3483      C4181   1.435       .  S
C3485      C4241   1.480       .  S
C3486      C4138   1.475       .  S
O3487      C3495   1.277       .  A
O3487     Co3507   1.869       .  S
O3488      C3496   1.272       .  A
O3488     Co3508   2.041       .  S
O3489     Co3509   1.945       .  S
O3490      C3498   1.238       .  A
O3490     Co3510   1.963       .  S
O3491     Co3508   2.040       .  S
O3492      C3498   1.260       .  A
O3492     Co3507   2.079       .  S
O3493      C3496   1.252       .  A
O3493     Co3510   1.935       .  S
O3494      C3495   1.316       .  A
O3494     Co3509   2.102       .  S
C3495      C4211   1.472       .  S
C3497      C4098   1.459       .  S
O3499      C3512   1.272       .  A
O3499     Co3507   1.942       .  S
O3500      C3513   1.235       .  A
O3500     Co3508   1.959       .  S
O3501      C3514   1.278       .  A
O3501     Co3509   1.870       .  S
O3502      C3515   1.273       .  A
O3502     Co3510   2.048       .  S
O3503      C3515   1.250       .  A
O3503     Co3508   1.932       .  S
O3504      C3514   1.315       .  A
O3504     Co3507   2.098       .  S
O3505      C3512   1.287       .  A
O3505     Co3510   2.042       .  S
O3506      C3513   1.260       .  A
O3506     Co3509   2.086       .  S
Co3507     O3511   2.030       .  S
Co3508     O3511   2.017       .  S
Co3509     O3511   2.036       .  S
Co3510     O3511   2.028       .  S
C3512      C4108   1.462       .  S
C3513      C4128   1.482       .  S
C3514      C4151   1.470       .  S
C3515      C4078   1.492       .  S
O3516      C3524   1.271       .  A
O3516     Co3536   1.869       .  S
O3517      C3525   1.261       .  A
O3517     Co3537   1.994       .  S
O3518      C3526   1.263   1_545  A
O3519      C3527   1.243       .  A
O3519     Co3539   1.959       .  S
O3520      C3526   1.274       .  A
O3521      C3527   1.268       .  A
O3521     Co3536   2.100       .  S
O3522      C3525   1.260       .  A
O3522     Co3539   1.968       .  S
O3523      C3524   1.312       .  A
O3523     Co3538   2.099       .  S
C3524      C4161   1.465       .  S
C3525      C4058   1.479       .  S
C3526      C4101   1.458       .  S
C3527      C4121   1.490       .  S
O3528      C3541   1.263       .  A
O3528     Co3536   1.953       .  S
O3529      C3542   1.246   1_545  A
O3530      C3543   1.270       .  A
O3530     Co3538   1.876       .  S
O3531      C3544   1.258       .  A
O3531     Co3539   1.979       .  S
O3532      C3544   1.262       .  A
O3532     Co3537   1.974       .  S
O3533      C3543   1.314       .  A
O3533     Co3536   2.110       .  S
O3534      C3541   1.272       .  A
O3534     Co3539   2.022       .  S
O3535      C3542   1.267       .  A
Co3536     O3540   2.054       .  S
Co3537     O3540   2.078       .  S
Co3538     O3540   2.053       .  S
Co3539     O3540   2.074       .  S
C3541      C4111   1.457       .  S
C3542      C4131   1.492       .  S
C3543      C4141   1.477       .  S
C3544      C4068   1.472       .  S
O3545      C3553   1.288       .  A
O3545     Co3565   2.077       .  S
O3546      C3554   1.248       .  A
O3546     Co3566   1.914       .  S
O3547      C3555   1.258       .  A
O3547     Co3567   1.987       .  S
O3548      C3556   1.259       .  A
O3548     Co3568   1.949       .  S
O3549      C3555   1.267       .  A
O3549     Co3566   2.023       .  S
O3550      C3556   1.272       .  A
O3550     Co3565   2.020       .  S
O3551      C3554   1.272       .  A
O3551     Co3568   2.024       .  S
O3552      C3553   1.270       .  A
O3552     Co3567   1.932       .  S
C3553      C4351   1.482       .  S
C3554      C4048   1.470       .  S
C3555      C4038   1.483       .  S
O3557      C3570   1.253       .  A
O3557     Co3565   1.967       .  S
O3558      C3571   1.258       .  A
O3558     Co3566   1.943       .  S
O3559      C3572   1.290       .  A
O3559     Co3567   2.096       .  S
O3560      C3573   1.243       .  A
O3560     Co3568   1.914       .  S
O3561      C3573   1.269       .  A
O3561     Co3566   2.022       .  S
O3562      C3572   1.267       .  A
O3562     Co3565   1.934       .  S
O3563      C3570   1.269       .  A
O3563     Co3568   2.029       .  S
O3564      C3571   1.273       .  A
O3564     Co3567   2.017       .  S
Co3565     O3569   2.025       .  S
Co3566     O3569   2.061       .  S
Co3567     O3569   2.037       .  S
Co3568     O3569   2.062       .  S
C3573      C3998   1.470       .  S
O3574      C3582   1.255       .  A
O3574     Co3594   1.970       .  S
O3575      C3583   1.270       .  A
O3575     Co3595   1.889       .  S
O3576      C3584   1.247       .  A
O3576     Co3596   1.943       .  S
O3577      C3585   1.260       .  A
O3577     Co3597   1.973       .  S
O3578      C3584   1.267       .  A
O3578     Co3595   2.071       .  S
O3579      C3585   1.259       .  A
O3579     Co3594   1.982       .  S
O3580      C3583   1.313       .  A
O3580     Co3597   2.111       .  S
O3581      C3582   1.264       .  A
O3581     Co3596   1.992       .  S
C3582      C4301   1.470       .  S
C3583      C3988   1.484       .  S
C3584      C4028   1.464       .  S
C3585      C4011   1.451       .  S
O3586      C3599   1.246       .  A
O3586     Co3594   1.943       .  S
O3587      C3600   1.263       .  A
O3587     Co3595   1.966       .  S
O3588      C3601   1.256       .  A
O3588     Co3596   1.966       .  S
O3589      C3602   1.267       .  A
O3589     Co3597   1.878       .  S
O3590      C3602   1.312       .  A
O3590     Co3595   2.109       .  S
O3591      C3601   1.257       .  A
O3591     Co3594   1.967       .  S
O3592      C3599   1.272       .  A
O3592     Co3597   2.100       .  S
O3593      C3600   1.268       .  A
O3593     Co3596   2.005       .  S
Co3594     O3598   2.070       .  S
Co3595     O3598   2.057       .  S
Co3596     O3598   2.077       .  S
Co3597     O3598   2.051       .  S
C3599      C4041   1.471       .  S
C3600      C4021   1.458       .  S
C3601      C4311   1.463       .  S
C3602      C3978   1.474       .  S
O3603      C3611   1.317       .  A
O3604      C3612   1.258       .  A
O3604     Co3624   1.954       .  S
O3605      C3613   1.268       .  A
O3605     Co3625   2.097       .  S
O3606      C3614   1.276       .  A
O3606     Co3626   2.026       .  S
O3607      C3613   1.242       .  A
O3607     Co3624   1.962       .  S
O3608      C3614   1.266       .  A
O3608     Co3623   1.951       .  S
O3609      C3612   1.264       .  A
O3610      C3611   1.271       .  A
O3610     Co3625   1.878       .  S
C3611      C3991   1.485       .  S
C3612      C3918   1.485       .  S
C3613      C3968   1.496       .  S
C3614      C3948   1.458       .  S
O3615      C3628   1.266   1_655  A
O3615     Co3623   2.107       .  S
O3616     Co3624   2.022       .  S
O3617      C3630   1.317       .  A
O3617     Co3625   2.116       .  S
O3619     Co3624   2.022       .  S
O3620      C3630   1.270   1_545  A
O3621      C3628   1.238       .  A
O3621     Co3626   1.959   1_455  S
O3622     Co3625   1.958   1_455  S
Co3624     O3627   2.066       .  S
Co3625     O3627   2.057       .  S
C3629      C3938   1.461       .  S
C3631      C3928   1.493       .  S
O3632      C3640   1.320       .  A
O3632     Co3652   2.116       .  S
O3633      C3641   1.252       .  A
O3633     Co3653   1.933       .  S
O3634      C3642   1.263       .  A
O3634     Co3654   2.092       .  S
O3635      C3643   1.287       .  A
O3635     Co3655   2.043       .  S
O3636      C3642   1.236       .  A
O3636     Co3653   1.962       .  S
O3637      C3643   1.274       .  A
O3637     Co3652   1.945       .  S
O3638      C3641   1.272       .  A
O3638     Co3655   2.043       .  S
O3639      C3640   1.276       .  A
O3639     Co3654   1.862       .  S
C3640      C3981   1.475       .  S
C3641      C3908   1.488       .  S
C3642      C3971   1.491       .  S
C3643      C3951   1.459       .  S
O3644      C3657   1.262       .  A
O3644     Co3652   2.098       .  S
O3645      C3658   1.288       .  A
O3645     Co3653   2.042       .  S
O3646      C3659   1.319       .  A
O3646     Co3654   2.112       .  S
O3647      C3660   1.249       .  A
O3647     Co3655   1.934       .  S
O3648      C3660   1.272       .  A
O3648     Co3653   2.052       .  S
O3649      C3659   1.276       .  A
O3649     Co3652   1.860       .  S
O3650      C3657   1.235       .  A
O3650     Co3655   1.961       .  S
O3651      C3658   1.275       .  A
O3651     Co3654   1.947       .  S
Co3652     O3656   2.026       .  S
Co3653     O3656   2.022       .  S
Co3654     O3656   2.026       .  S
Co3655     O3656   2.014       .  S
C3657      C3961   1.490       .  S
C3658      C3941   1.464       .  S
C3659      C4051   1.464       .  S
C3660      C3898   1.487       .  S
O3661      C3669   1.256       .  A
O3661     Co3681   1.947       .  S
O3662      C3670   1.311       .  A
O3662     Co3682   2.102       .  S
O3663      C3671   1.271       .  A
O3663     Co3683   2.012       .  S
O3664      C3672   1.268       .  A
O3664     Co3684   2.099       .  S
O3665      C3671   1.260       .  A
O3665     Co3682   1.940       .  S
O3666      C3672   1.245       .  A
O3666     Co3681   1.967       .  S
O3667      C3670   1.272       .  A
O3667     Co3684   1.881       .  S
O3668      C3669   1.262       .  A
O3668     Co3683   2.001       .  S
C3669      C3911   1.482       .  S
C3670      C3838   1.473       .  S
C3671      C3858   1.440       .  S
C3672      C3868   1.496       .  S
O3673     Co3681   2.001       .  S
O3674     Co3682   2.098       .  S
O3675     Co3683   1.952       .  S
O3676     Co3684   2.106       .  S
O3677     Co3682   1.875       .  S
O3678     Co3681   2.006       .  S
O3679     Co3684   1.948   1_455  S
O3680     Co3683   1.967   1_455  S
Co3681     O3685   2.077       .  S
Co3682     O3685   2.055       .  S
Co3683     O3685   2.075       .  S
Co3684     O3685   2.060       .  S
C3686      C3848   1.447       .  S
C3687      C3878   1.497       .  S
C3688      C3901   1.492       .  S
C3689      C3888   1.474       .  S
O3690      C3698   1.273       .  A
O3690     Co3710   2.051       .  S
O3691      C3699   1.279       .  A
O3691     Co3711   1.871       .  S
O3692      C3700   1.235   1_545  A
O3693      C3701   1.268       .  A
O3693     Co3713   1.928       .  S
O3694      C3700   1.260       .  A
O3695      C3701   1.284       .  A
O3695     Co3710   2.034       .  S
O3696      C3699   1.315       .  A
O3696     Co3713   2.102       .  S
O3697      C3698   1.248       .  A
O3697     Co3712   1.923       .  S
C3698      C4071   1.489       .  S
C3699      C3788   1.473       .  S
C3700      C3821   1.488       .  S
C3701      C3808   1.448       .  S
O3702      C3715   1.237       .  A
O3702     Co3710   1.959       .  S
O3703      C3716   1.273   1_545  A
O3704      C3717   1.273       .  A
O3704     Co3712   2.052       .  S
O3705      C3718   1.276       .  A
O3705     Co3713   1.869       .  S
O3706      C3718   1.316       .  A
O3706     Co3711   2.107       .  S
O3707      C3717   1.250       .  A
O3707     Co3710   1.932       .  S
O3708      C3715   1.263       .  A
O3708     Co3713   2.091       .  S
O3709      C3716   1.286       .  A
Co3710     O3714   2.027       .  S
Co3711     O3714   2.037       .  S
Co3712     O3714   2.016       .  S
Co3713     O3714   2.026       .  S
C3718      C3891   1.473       .  S
O3719      C3727   1.250       .  A
O3719     Co3739   1.934       .  S
O3720      C3728   1.315       .  A
O3720     Co3740   2.103       .  S
O3721      C3729   1.285       .  A
O3721     Co3741   2.033       .  S
O3722      C3730   1.261       .  A
O3723      C3729   1.270       .  A
O3723     Co3740   1.926       .  S
O3724      C3730   1.236       .  A
O3725      C3728   1.278       .  A
O3725     Co3742   1.871       .  S
O3726      C3727   1.275       .  A
O3726     Co3741   2.061       .  S
C3727      C3931   1.495       .  S
C3728      C3791   1.473       .  S
C3729      C3851   1.444       .  S
C3730      C3881   1.493       .  S
O3731      C3744   1.289       .  A
O3732      C3745   1.261       .  A
O3732     Co3740   2.089       .  S
O3733      C3746   1.249       .  A
O3733     Co3741   1.931       .  S
O3734      C3747   1.314       .  A
O3734     Co3742   2.103       .  S
O3735      C3747   1.276       .  A
O3735     Co3740   1.867       .  S
O3736      C3746   1.273       .  A
O3736     Co3739   2.056       .  S
O3737      C3744   1.272       .  A
O3738      C3745   1.237       .  A
O3738     Co3741   1.966       .  S
Co3739     O3743   2.015       .  S
Co3740     O3743   2.025       .  S
Co3741     O3743   2.023       .  S
Co3742     O3743   2.033       .  S
C3744      C3861   1.462       .  S
C3745      C3871   1.490       .  S
C3746      C3921   1.489       .  S
C3747      C3778   1.456       .  S
O3748      C3756   1.259       .  A
O3748     Co3768   1.986       .  S
O3749      C3757   1.270       .  A
O3749     Co3769   1.879       .  S
O3750      C3758   1.248       .  A
O3750     Co3770   1.971       .  S
O3751      C3759   1.260       .  A
O3751     Co3771   1.952       .  S
O3752      C3758   1.268       .  A
O3752     Co3769   2.092       .  S
O3753      C3759   1.266       .  A
O3753     Co3768   2.001       .  S
O3754      C3757   1.309       .  A
O3754     Co3771   2.098       .  S
O3755      C3756   1.262       .  A
O3755     Co3770   1.977       .  S
C3756      C4081   1.480       .  S
C3757      C3781   1.456       .  S
C3758      C3818   1.496       .  S
C3759      C3811   1.449       .  S
O3760      C3773   1.249       .  A
O3760     Co3768   1.970       .  S
O3761      C3774   1.259       .  A
O3761     Co3769   1.941       .  S
O3762      C3775   1.259       .  A
O3762     Co3770   1.989       .  S
O3763      C3776   1.271       .  A
O3763     Co3771   1.884       .  S
O3764      C3776   1.310       .  A
O3764     Co3769   2.100       .  S
O3765      C3775   1.260       .  A
O3765     Co3768   1.970       .  S
O3766      C3773   1.270       .  A
O3766     Co3771   2.097       .  S
O3767      C3774   1.269       .  A
O3767     Co3770   2.012       .  S
Co3768     O3772   2.079       .  S
Co3769     O3772   2.053       .  S
Co3770     O3772   2.082       .  S
Co3771     O3772   2.057       .  S
C3773      C3831   1.492       .  S
C3774      C3801   1.448       .  S
C3775      C4091   1.478       .  S
C3776      C3841   1.473       .  S
C3777      C3778   1.404       .  A
C3777      C3782   1.396       .  A
C3777      H3783   1.083       .  S
C3778      C3779   1.398       .  A
C3779      C3780   1.395       .  A
C3779      H3784   1.083       .  S
C3780      C3781   1.404       .  A
C3780      H3785   1.083       .  S
C3781      C3782   1.399       .  A
C3782      H3786   1.083       .  S
C3787      C3788   1.399       .  A
C3787      C3792   1.395       .  A
C3787      H3793   1.083       .  S
C3789      C3790   1.395       .  A
C3789      H3794   1.083       .  S
C3790      C3791   1.398       .  A
C3790      H3795   1.083       .  S
C3792      H3796   1.083       .  S
C3797      C3798   1.399       .  A
C3797      C3802   1.390       .  A
C3798      C3799   1.401       .  A
C3799      C3800   1.388       .  A
C3800      C3801   1.399       .  A
C3800      H3805   1.083       .  S
C3801      C3802   1.401       .  A
C3802      H3806   1.084       .  S
C3807      C3808   1.399       .  A
C3807      C3812   1.387       .  A
C3807      H3813   1.083       .  S
C3808      C3809   1.401       .  A
C3809      C3810   1.391       .  A
C3809      H3814   1.084       .  S
C3810      C3811   1.400       .  A
C3810      H3815   1.083       .  S
C3811      C3812   1.401       .  A
C3812      H3816   1.084       .  S
C3817      C3818   1.410       .  A
C3817      C3822   1.408       .  A
C3817      H3823   1.083       .  S
C3818      C3819   1.406       .  A
C3819      C3820   1.408       .  A
C3819      H3824   1.084       .  S
C3820      C3821   1.408       .  A
C3821      C3822   1.404       .  A
C3822      H3826   1.084       .  S
C3827      C3828   1.410       .  A
C3827      C3832   1.405       .  A
C3827      H3833   1.083       .  S
C3828      C3829   1.405       .  A
C3829      C3830   1.411       .  A
C3830      C3831   1.410       .  A
C3830      H3835   1.082       .  S
C3831      C3832   1.403       .  A
C3832      H3836   1.084       .  S
C3837      C3838   1.412       .  A
C3837      C3842   1.395       .  A
C3837      H3843   1.083       .  S
C3838      C3839   1.397       .  A
C3839      C3840   1.395       .  A
C3839      H3844   1.083       .  S
C3840      C3841   1.412       .  A
C3840      H3845   1.083       .  S
C3841      C3842   1.397       .  A
C3842      H3846   1.083       .  S
C3847      C3848   1.401       .  A
C3847      C3852   1.385       .  A
C3848      C3849   1.399       .  A
C3849      C3850   1.391       .  A
C3849      H3854   1.083       .  S
C3850      C3851   1.401       .  A
C3850      H3855   1.084       .  S
C3851      C3852   1.397       .  A
C3852      H3856   1.083       .  S
C3857      C3858   1.395       .  A
C3857      C3862   1.387       .  A
C3857      H3863   1.084       .  S
C3858      C3859   1.396       .  A
C3859      C3860   1.391       .  A
C3859      H3864   1.083       .  S
C3860      C3861   1.405       .  A
C3860      H3865   1.083       .  S
C3861      C3862   1.405       .  A
C3862      H3866   1.083       .  S
C3867      C3868   1.405       .  A
C3867      C3872   1.409       .  A
C3867      H3873   1.083       .  S
C3868      C3869   1.411       .  A
C3869      C3870   1.408       .  A
C3869      H3874   1.083       .  S
C3870      C3871   1.403       .  A
C3870      H3875   1.084       .  S
C3871      C3872   1.410       .  A
C3872      H3876   1.083       .  S
C3877      C3878   1.411       .  A
C3877      C3882   1.409       .  A
C3877      H3883   1.083       .  S
C3878      C3879   1.405       .  A
C3879      C3880   1.409       .  A
C3880      C3881   1.411       .  A
C3880      H3885   1.083       .  S
C3881      C3882   1.404       .  A
C3882      H3886   1.084       .  S
C3887      C3888   1.397       .  A
C3887      C3892   1.397       .  A
C3887      H3893   1.083       .  S
C3889      C3890   1.393       .  A
C3889      H3894   1.083       .  S
C3890      H3895   1.083       .  S
C3891      C3892   1.412       .  A
C3892      H3896   1.083       .  S
C3897      C3898   1.409       .  A
C3897      C3902   1.418       .  A
C3897      H3903   1.082       .  S
C3898      C3899   1.404       .  A
C3899      C3900   1.383       .  A
C3899      H3904   1.084       .  S
C3900      C3901   1.403       .  A
C3900      H3905   1.083       .  S
C3901      C3902   1.413       .  A
C3902      H3906   1.082       .  S
C3907      C3908   1.406       .  A
C3907      C3912   1.383       .  A
C3907      H3913   1.083       .  S
C3908      C3909   1.410       .  A
C3909      C3910   1.415       .  A
C3909      H3914   1.083       .  S
C3910      C3911   1.410       .  A
C3910      H3915   1.082       .  S
C3911      C3912   1.400       .  A
C3912      H3916   1.084       .  S
C3917      C3918   1.412       .  A
C3917      C3922   1.417       .  A
C3917      H3923   1.083   1_565  S
C3918      C3919   1.399       .  A
C3919      C3920   1.384       .  A
C3919      H3924   1.084       .  S
C3920      C3921   1.407       .  A
C3920      H3925   1.083       .  S
C3921      C3922   1.409       .  A
C3922      H3926   1.082   1_565  S
C3927      C3928   1.413       .  A
C3927      C3932   1.422       .  A
C3927      H3933   1.082       .  S
C3928      C3929   1.402       .  A
C3929      C3930   1.383       .  A
C3930      C3931   1.405       .  A
C3931      C3932   1.412       .  A
C3932      H3936   1.082       .  S
C3937      C3938   1.400       .  A
C3937      C3942   1.396       .  A
C3937      H3943   1.083       .  S
C3938      C3939   1.403       .  A
C3939      C3940   1.393       .  A
C3940      C3941   1.401       .  A
C3940      H3945   1.083       .  S
C3941      C3942   1.405       .  A
C3942      H3946   1.084       .  S
C3947      C3948   1.400       .  A
C3947      C3952   1.394       .  A
C3947      H3953   1.083       .  S
C3948      C3949   1.403       .  A
C3949      C3950   1.393       .  A
C3949      H3954   1.084       .  S
C3950      C3951   1.400       .  A
C3950      H3955   1.083       .  S
C3951      C3952   1.404       .  A
C3952      H3956   1.084       .  S
C3957      C3958   1.403       .  A
C3957      C3962   1.408       .  A
C3957      H3963   1.083       .  S
C3958      C3959   1.412       .  A
C3959      C3960   1.407       .  A
C3959      H3964   1.083       .  S
C3960      C3961   1.402       .  A
C3960      H3965   1.084       .  S
C3961      C3962   1.411       .  A
C3962      H3966   1.083       .  S
C3967      C3968   1.412       .  A
C3967      C3972   1.407       .  A
C3967      H3973   1.083       .  S
C3968      C3969   1.404       .  A
C3969      C3970   1.410       .  A
C3969      H3974   1.083       .  S
C3970      C3971   1.411       .  A
C3970      H3975   1.083       .  S
C3971      C3972   1.402       .  A
C3972      H3976   1.084       .  S
C3977      C3978   1.395       .  A
C3977      C3982   1.396       .  A
C3977      H3983   1.083       .  S
C3978      C3979   1.414       .  A
C3979      C3980   1.395       .  A
C3979      H3984   1.083       .  S
C3980      C3981   1.395       .  A
C3980      H3985   1.083       .  S
C3981      C3982   1.414       .  A
C3982      H3986   1.083       .  S
C3987      C3988   1.397       .  A
C3987      C3992   1.399       .  A
C3987      H3993   1.083       .  S
C3988      C3989   1.415       .  A
C3989      C3990   1.401       .  A
C3989      H3994   1.083       .  S
C3990      C3991   1.398       .  A
C3990      H3995   1.083       .  S
C3991      C3992   1.415       .  A
C3992      H3996   1.083       .  S
C3997      C3998   1.415       .  A
C3997      C4002   1.391       .  A
C3997      H4003   1.084       .  S
C3999      C4000   1.398       .  A
C3999      H4004   1.083       .  S
C4000      H4005   1.083       .  S
C4001      C4002   1.391       .  A
C4007      C4008   1.398       .  A
C4007      C4012   1.384       .  A
C4007      H4013   1.083       .  S
C4008      C4009   1.403       .  A
C4009      C4010   1.396       .  A
C4010      C4011   1.400       .  A
C4010      H4015   1.083       .  S
C4011      C4012   1.401       .  A
C4012      H4016   1.084       .  S
C4017      C4018   1.403       .  A
C4017      C4022   1.396       .  A
C4017      H4023   1.084       .  S
C4018      C4019   1.399       .  A
C4019      C4020   1.390       .  A
C4020      C4021   1.402       .  A
C4020      H4025   1.084       .  S
C4021      C4022   1.401       .  A
C4022      H4026   1.083       .  S
C4027      C4028   1.399       .  A
C4027      C4032   1.392       .  A
C4027      H4033   1.084       .  S
C4028      C4029   1.403       .  A
C4029      C4030   1.404       .  A
C4029      H4034   1.083       .  S
C4030      C4031   1.408       .  A
C4031      C4032   1.406       .  A
C4037      C4038   1.406       .  A
C4037      C4042   1.400       .  A
C4037      H4043   1.083       .  S
C4038      C4039   1.406       .  A
C4039      C4040   1.402       .  A
C4039      H4044   1.083       .  S
C4040      C4041   1.403       .  A
C4040      H4045   1.083       .  S
C4041      C4042   1.402       .  A
C4042      H4046   1.084       .  S
C4047      C4048   1.414       .  A
C4047      C4052   1.388       .  A
C4047      H4053   1.084       .  S
C4048      C4049   1.395       .  A
C4049      C4050   1.399       .  A
C4049      H4054   1.083       .  S
C4050      C4051   1.414       .  A
C4050      H4055   1.083       .  S
C4051      C4052   1.390       .  A
C4052      H4056   1.083       .  S
C4057      C4058   1.396       .  A
C4057      C4062   1.388       .  A
C4057      H4063   1.084       .  S
C4058      C4059   1.410       .  A
C4059      C4060   1.416       .  A
C4059      H4064   1.083       .  S
C4060      C4061   1.410       .  A
C4061      C4062   1.411       .  A
C4062      H4066   1.083       .  S
C4067      C4068   1.410       .  A
C4067      C4072   1.413       .  A
C4067      H4073   1.082       .  S
C4068      C4069   1.394       .  A
C4069      C4070   1.386       .  A
C4069      H4074   1.084       .  S
C4070      C4071   1.412       .  A
C4070      H4075   1.083       .  S
C4071      C4072   1.408       .  A
C4072      H4076   1.083       .  S
C4077      C4078   1.411       .  A
C4077      C4082   1.387       .  A
C4077      H4083   1.083       .  S
C4078      C4079   1.409       .  A
C4079      C4080   1.414       .  A
C4079      H4084   1.083       .  S
C4080      C4081   1.411       .  A
C4080      H4085   1.083       .  S
C4081      C4082   1.397       .  A
C4082      H4086   1.084       .  S
C4087      C4088   1.409       .  A
C4087      C4092   1.387       .  A
C4087      H4093   1.083       .  S
C4088      C4089   1.409       .  A
C4089      C4090   1.413       .  A
C4090      C4091   1.409       .  A
C4090      H4095   1.083       .  S
C4091      C4092   1.398       .  A
C4092      H4096   1.084       .  S
C4097      C4098   1.403       .  A
C4097      C4102   1.393       .  A
C4098      C4099   1.401       .  A
C4099      C4100   1.394       .  A
C4099      H4104   1.083       .  S
C4100      C4101   1.403       .  A
C4100      H4105   1.084       .  S
C4101      C4102   1.400       .  A
C4102      H4106   1.083       .  S
C4107      C4108   1.402       .  A
C4107      C4112   1.393       .  A
C4107      H4113   1.083       .  S
C4108      C4109   1.404       .  A
C4109      C4110   1.394       .  A
C4109      H4114   1.084       .  S
C4110      C4111   1.400       .  A
C4110      H4115   1.083       .  S
C4111      C4112   1.402       .  A
C4112      H4116   1.084       .  S
C4117      C4118   1.409       .  A
C4117      C4122   1.406       .  A
C4117      H4123   1.083       .  S
C4118      C4119   1.402       .  A
C4119      C4120   1.406       .  A
C4120      C4121   1.410       .  A
C4120      H4125   1.083       .  S
C4121      C4122   1.404       .  A
C4122      H4126   1.084       .  S
C4127      C4128   1.402       .  A
C4127      C4132   1.405       .  A
C4127      H4133   1.084       .  S
C4128      C4129   1.408       .  A
C4129      C4130   1.407       .  A
C4129      H4134   1.083       .  S
C4130      C4131   1.405       .  A
C4130      H4135   1.083       .  S
C4131      C4132   1.410       .  A
C4132      H4136   1.083       .  S
C4137      C4138   1.413   1_545  A
C4137      H4143   1.083       .  S
C4138      C4139   1.396       .  A
C4139      C4140   1.395       .  A
C4139      H4144   1.083       .  S
C4140      H4145   1.083       .  S
C4141      C4142   1.398       .  A
C4142      H4146   1.083       .  S
C4147      C4148   1.411       .  A
C4147      C4152   1.392   1_554  A
C4147      H4153   1.083       .  S
C4148      C4149   1.397       .  A
C4149      C4150   1.395       .  A
C4149      H4154   1.083       .  S
C4150      C4151   1.411   1_554  A
C4150      H4155   1.083       .  S
C4151      C4152   1.396       .  A
C4152      H4156   1.083       .  S
C4157      C4158   1.410       .  A
C4157      C4162   1.394       .  A
C4157      H4163   1.083       .  S
C4158      C4159   1.395       .  A
C4159      C4160   1.390       .  A
C4159      H4164   1.083       .  S
C4160      C4161   1.410   1_554  A
C4160      H4165   1.083       .  S
C4161      C4162   1.396   1_556  A
C4162      H4166   1.083   1_554  S
C4167      C4168   1.400       .  A
C4167      C4172   1.383       .  A
C4168      C4169   1.396       .  A
C4169      C4170   1.383       .  A
C4169      H4174   1.083       .  S
C4170      C4171   1.400       .  A
C4170      H4175   1.084       .  S
C4171      C4172   1.396       .  A
C4177      C4178   1.400       .  A
C4177      C4182   1.383       .  A
C4177      H4183   1.084       .  S
C4178      C4179   1.396       .  A
C4179      C4180   1.383       .  A
C4179      H4184   1.083       .  S
C4180      C4181   1.400       .  A
C4180      H4185   1.084       .  S
C4181      C4182   1.396       .  A
C4182      H4186   1.083       .  S
C4187      C4188   1.406       .  A
C4187      C4192   1.408       .  A
C4187      H4193   1.084       .  S
C4188      C4189   1.407       .  A
C4189      C4190   1.403       .  A
C4189      H4194   1.083       .  S
C4190      C4191   1.403       .  A
C4190      H4195   1.084       .  S
C4191      C4192   1.407       .  A
C4197      C4198   1.404       .  A
C4197      C4202   1.405       .  A
C4198      C4199   1.406       .  A
C4199      C4200   1.404       .  A
C4199      H4204   1.083       .  S
C4200      C4201   1.404       .  A
C4200      H4205   1.084       .  S
C4201      C4202   1.406       .  A
C4202      H4206   1.083       .  S
C4207      C4208   1.412       .  A
C4207      C4212   1.393   1_554  A
C4207      H4213   1.083       .  S
C4209      C4210   1.396       .  A
C4209      H4214   1.083       .  S
C4210      C4211   1.412   1_554  A
C4210      H4215   1.083       .  S
C4212      H4216   1.083       .  S
C4217      C4218   1.409       .  A
C4217      C4222   1.395       .  A
C4217      H4223   1.083       .  S
C4218      C4219   1.401       .  A
C4219      C4220   1.399       .  A
C4219      H4224   1.083       .  S
C4220      C4221   1.408       .  A
C4220      H4225   1.083       .  S
C4221      C4222   1.399       .  A
C4227      C4228   1.408       .  A
C4227      C4232   1.396       .  A
C4227      H4233   1.083       .  S
C4228      C4229   1.400       .  A
C4229      C4230   1.396       .  A
C4229      H4234   1.083       .  S
C4230      C4231   1.407       .  A
C4230      H4235   1.083       .  S
C4231      C4232   1.399       .  A
C4232      H4236   1.083       .  S
C4237      C4238   1.403       .  A
C4237      C4242   1.396       .  A
C4237      H4243   1.083       .  S
C4238      C4239   1.410       .  A
C4239      C4240   1.403       .  A
C4239      H4244   1.083       .  S
C4240      C4241   1.403       .  A
C4240      H4245   1.083       .  S
C4241      C4242   1.407       .  A
C4242      H4246   1.083       .  S
C4247      C4248   1.403       .  A
C4247      C4252   1.399       .  A
C4248      C4249   1.410       .  A
C4249      C4250   1.399       .  A
C4249      H4254   1.083       .  S
C4250      C4251   1.402       .  A
C4250      H4255   1.083       .  S
C4251      C4252   1.408       .  A
C4252      H4256   1.083       .  S
C4257      C4258   1.401       .  A
C4257      C4262   1.396       .  A
C4258      C4259   1.401       .  A
C4259      C4260   1.394       .  A
C4260      C4261   1.402       .  A
C4260      H4265   1.084       .  S
C4261      C4262   1.403       .  A
C4262      H4266   1.083       .  S
C4267      C4268   1.402       .  A
C4267      C4272   1.397       .  A
C4267      H4273   1.084       .  S
C4268      C4269   1.403       .  A
C4269      C4270   1.395       .  A
C4269      H4274   1.083       .  S
C4270      C4271   1.401       .  A
C4270      H4275   1.084       .  S
C4271      C4272   1.402       .  A
C4272      H4276   1.083       .  S
C4277      C4278   1.408       .  A
C4277      C4282   1.402       .  A
C4278      C4279   1.406       .  A
C4279      C4280   1.413       .  A
C4279      H4284   1.083       .  S
C4280      C4281   1.412       .  A
C4280      H4285   1.082       .  S
C4281      C4282   1.405       .  A
C4282      H4286   1.083       .  S
C4287      C4288   1.407       .  A
C4287      C4292   1.402       .  A
C4287      H4293   1.083       .  S
C4288      C4289   1.406       .  A
C4289      C4290   1.412       .  A
C4290      C4291   1.411       .  A
C4290      H4295   1.082       .  S
C4291      C4292   1.405       .  A
C4292      H4296   1.083       .  S
C4297      C4298   1.406       .  A
C4297      C4302   1.392       .  A
C4297      H4303   1.083       .  S
C4298      C4299   1.410       .  A
C4299      C4300   1.404       .  A
C4300      C4301   1.403       .  A
C4300      H4305   1.083       .  S
C4301      C4302   1.400       .  A
C4302      H4306   1.084       .  S
C4307      C4308   1.404       .  A
C4307      C4312   1.399       .  A
C4307      H4313   1.083       .  S
C4308      C4309   1.401       .  A
C4309      C4310   1.389       .  A
C4309      H4314   1.084       .  S
C4310      C4311   1.402       .  A
C4310      H4315   1.083       .  S
C4311      C4312   1.403       .  A
C4312      H4316   1.083       .  S
C4317      C4318   1.416       .  A
C4317      C4322   1.399       .  A
C4317      H4323   1.084       .  S
C4318      C4319   1.392       .  A
C4319      C4320   1.397       .  A
C4319      H4324   1.082       .  S
C4320      C4321   1.420       .  A
C4320      H4325   1.083       .  S
C4321      C4322   1.396       .  A
C4322      H4326   1.082       .  S
C4327      C4332   1.405       .  A
C4327      H4333   1.083       .  S
C4328      C4329   1.417       .  A
C4329      C4330   1.410       .  A
C4329      H4334   1.080       .  S
C4330      C4331   1.399       .  A
C4330      H4335   1.082       .  S
C4332      H4336   1.084       .  S
C4337      C4338   1.407       .  A
C4337      C4342   1.410       .  A
C4337      H4343   1.082       .  S
C4338      C4339   1.407       .  A
C4339      C4340   1.400       .  A
C4339      H4344   1.083       .  S
C4340      C4341   1.403       .  A
C4340      H4345   1.083       .  S
C4341      C4342   1.410       .  A
C4342      H4346   1.083       .  S
C4347      C4348   1.404       .  A
C4347      C4352   1.393       .  A
C4347      H4353   1.083       .  S
C4348      C4349   1.407       .  A
C4349      C4350   1.409       .  A
C4349      H4354   1.083       .  S
C4350      C4351   1.408       .  A
C4350      H4355   1.083       .  S
C4351      C4352   1.403       .  A
C4352      H4356   1.083       .  S
C4357      C4358   1.417       .  A
C4357      C4362   1.398       .  A
C4357      H4363   1.083       .  S
C4358      C4359   1.397       .  A
C4359      C4360   1.399       .  A
C4359      H4364   1.082       .  S
C4360      C4361   1.418       .  A
C4360      H4365   1.084       .  S
C4361      C4362   1.396       .  A
C4362      H4366   1.082       .  S
C4367      C4368   1.402       .  A
C4367      C4372   1.388       .  A
C4368      C4369   1.404       .  A
C4369      C4370   1.404       .  A
C4369      H4374   1.083       .  S
C4370      C4371   1.407       .  A
C4370      H4375   1.083       .  S
C4371      C4372   1.402       .  A
C4372      H4376   1.083       .  S
C4377      C4378   1.403       .  A
C4377      C4382   1.391       .  A
C4377      H4383   1.085       .  S
C4378      C4379   1.400       .  A
C4379      C4380   1.401       .  A
C4379      H4384   1.083       .  S
C4380      C4381   1.409       .  A
C4380      H4385   1.084       .  S
C4381      C4382   1.401       .  A
C4382      H4386   1.083       .  S
C4387      C4388   1.396       .  A
C4387      C4392   1.390       .  A
C4387      H4393   1.084       .  S
C4388      C4389   1.407       .  A
C4389      C4390   1.401       .  A
C4389      H4394   1.083       .  S
C4390      C4391   1.402       .  A
C4390      H4395   1.084       .  S
C4391      C4392   1.408       .  A
C4392      H4396   1.083       .  S
C4397      C4398   1.411       .  A
C4397      C4402   1.398       .  A
C4397      H4403   1.080       .  S
C4398      C4399   1.397       .  A
C4399      C4400   1.393       .  A
C4399      H4404   1.083       .  S
C4400      C4401   1.409       .  A
C4400      H4405   1.083       .  S
C4401      C4402   1.396       .  A
C4407      C4408   1.404       .  A
C4407      C4412   1.415       .  A
C4407      H4413   1.082       .  S
C4409      C4410   1.399       .  A
C4409      H4414   1.083       .  S
C4410      C4411   1.396       .  A
C4410      H4415   1.083       .  S
C4412      H4416   1.080       .  S
