geometry optimzed in LAMMPS
_audit_creation_date              2020-11-30 
_audit_creation_method            'lammps2cif' 
_symmetry_space_group_name_H-M    'P1' 
_symmetry_Int_Tables_number       1 
_symmetry_cell_setting            triclinic 
loop_ 
_symmetry_equiv_pos_as_xyz 
  x,y,z 
_cell_length_a                    36.28627977718566 
_cell_length_b                    36.25088132935475 
_cell_length_c                    36.28867507351075 
_cell_angle_alpha                 89.80070488516397 
_cell_angle_beta                  90.00070374583822 
_cell_angle_gamma                 90.03009775584589 
loop_ 
_atom_site_label 
_atom_site_type_symbol 
_atom_site_fract_x 
_atom_site_fract_y 
_atom_site_fract_z 
_atom_site_charge 
C1          C  0.24059154  0.85298528  0.96443962     0.02990
C2          C  0.23811641  0.83379603  0.99779584    -0.13160
C3          C  0.24173453  0.85212779  0.03134912     0.00490
C4          C  0.24669934  0.89062649  0.03152491    -0.11690
C5          C  0.24715212  0.91074918  0.99840230     0.02980
C6          C  0.24500381  0.89165612  0.96481324    -0.11110
H7          H  0.23147809  0.80462306  0.99766580     0.08570
H8          H  0.24800425  0.90518424  0.05753331     0.06100
H9          H  0.24473927  0.90700806  0.93913532     0.05950
C10         C  0.63837247  0.12781343  0.03036590     0.02990
C11         C  0.62464514  0.09146930  0.02992339    -0.13160
C12         C  0.62156557  0.07187742  0.99671453     0.00490
C13         C  0.62792414  0.09025153  0.96321321    -0.11690
C14         C  0.63886409  0.12734579  0.96315797     0.02980
C15         C  0.64569213  0.14519408  0.99648338    -0.11110
H16         H  0.61709795  0.07771213  0.05522280     0.08570
H17         H  0.62570586  0.07550569  0.93739001     0.06100
H18         H  0.65661295  0.17299651  0.99565716     0.05950
C19         C  0.96440719  0.69520097  0.13755735     0.02990
C20         C  0.93138300  0.69717896  0.15732781    -0.13160
C21         C  0.89749913  0.69466521  0.13930963     0.00490
C22         C  0.89644631  0.69086560  0.10084103    -0.11690
C23         C  0.92930244  0.69041073  0.08025797     0.02980
C24         C  0.96327535  0.69197012  0.09892259    -0.11110
H25         H  0.93194095  0.70246131  0.18670822     0.08570
H26         H  0.87007522  0.68945045  0.08692490     0.06100
H27         H  0.98874938  0.69204179  0.08332929     0.05950
C28         C  0.89719999  0.28292830  0.86061383     0.02990
C29         C  0.93122702  0.28190009  0.84259327    -0.13160
C30         C  0.96411665  0.28386534  0.86256304     0.00490
C31         C  0.96291106  0.28957043  0.90078882    -0.11690
C32         C  0.92893309  0.29218825  0.91925531     0.02980
C33         C  0.89608035  0.28840826  0.89897829    -0.11110
H34         H  0.93220658  0.27902505  0.81288737     0.08570
H35         H  0.98840045  0.29132169  0.91626272     0.06100
H36         H  0.86976479  0.28866241  0.91307257     0.05950
C37         C  0.62667390  0.85509146  0.96424132     0.02990
C38         C  0.62214870  0.89360080  0.96483895    -0.13160
C39         C  0.61832722  0.91220665  0.99853614     0.00490
C40         C  0.61854094  0.89187531  0.03157591    -0.11690
C41         C  0.62382850  0.85355087  0.03104764     0.02980
C42         C  0.62748950  0.83538608  0.99738959    -0.11110
H43         H  0.62349038  0.90924049  0.93937487     0.08570
H44         H  0.61668042  0.90611010  0.05771176     0.06100
H45         H  0.63223058  0.80584764  0.99706894     0.05950
C46         C  0.22964604  0.12860917  0.96630024     0.02990
C47         C  0.23547529  0.09024670  0.96630615    -0.13160
C48         C  0.23969254  0.07083236  0.99964321     0.00490
C49         C  0.23738983  0.09010664  0.03315786    -0.11690
C50         C  0.23144797  0.12846773  0.03338646     0.02980
C51         C  0.22727936  0.14726810  0.99991151    -0.11110
H52         H  0.23525216  0.07524168  0.94055315     0.08570
H53         H  0.23955421  0.07518239  0.05899758     0.06100
H54         H  0.22105501  0.17650527  0.99998930     0.05950
C55         C  0.96580950  0.70106634  0.86225729     0.02990
C56         C  0.96537558  0.69694637  0.90084176    -0.13160
C57         C  0.93170955  0.69433481  0.92001025     0.00490
C58         C  0.89848690  0.69744297  0.90017768    -0.11690
C59         C  0.89885243  0.70261128  0.86177522     0.02980
C60         C  0.93248055  0.70326368  0.84304290    -0.11110
H61         H  0.99108168  0.69708642  0.91599938     0.08570
H62         H  0.87240117  0.69666195  0.91471039     0.06100
H63         H  0.93276276  0.70616191  0.81329437     0.05950
C64         C  0.89558733  0.29417391  0.13687981     0.02990
C65         C  0.89609355  0.29820229  0.09827251    -0.13160
C66         C  0.92972132  0.30018257  0.07914998     0.00490
C67         C  0.96283628  0.30029718  0.09922814    -0.11690
C68         C  0.96267631  0.29535897  0.13768551     0.02980
C69         C  0.92897626  0.29147917  0.15602846    -0.11110
H70         H  0.87042264  0.29825029  0.08300907     0.08570
H71         H  0.98885169  0.30255404  0.08473594     0.06100
H72         H  0.92871169  0.28541220  0.18530541     0.05950
C73         C  0.79214988  0.02893459  0.29879091     0.02990
C74         C  0.77450505  0.99509706  0.29350780    -0.13160
C75         C  0.79458012  0.96221037  0.29374542     0.00490
C76         C  0.83302843  0.96334345  0.29802839    -0.11690
C77         C  0.85114468  0.99714114  0.30321104     0.02980
C78         C  0.83045447  0.02981922  0.30426835    -0.11110
H79         H  0.74504564  0.99440452  0.28852418     0.08570
H80         H  0.84898104  0.93816682  0.29620607     0.06100
H81         H  0.84423230  0.05603038  0.30826474     0.05950
C82         C  0.06959131  0.03087637  0.69697613     0.02990
C83         C  0.08812221  0.99759236  0.69101817    -0.13160
C84         C  0.06872290  0.96428759  0.68864884     0.00490
C85         C  0.03004704  0.96474191  0.68854613    -0.11690
C86         C  0.01081252  0.99826871  0.69121754     0.02980
C87         C  0.03076535  0.03119736  0.69618486    -0.11110
H88         H  0.11793932  0.99714920  0.69012287     0.08570
H89         H  0.01488667  0.93898941  0.68801661     0.06100
H90         H  0.01608464  0.05679360  0.70076475     0.05950
C91         C  0.79273804  0.96099305  0.70332846     0.02990
C92         C  0.83124742  0.96125938  0.69928785    -0.13160
C93         C  0.85082799  0.99478304  0.69882248     0.00490
C94         C  0.83113078  0.02817141  0.70084682    -0.11690
C95         C  0.79250619  0.02799507  0.70409584     0.02980
C96         C  0.77370745  0.99438210  0.70588691    -0.11110
H97         H  0.84600899  0.93539078  0.69745846     0.08570
H98         H  0.84584971  0.05419370  0.70068947     0.06100
H99         H  0.74411743  0.99417081  0.71007615     0.05950
C100        C  0.06836554  0.02985638  0.30620523     0.02990
C101        C  0.02990757  0.02973997  0.30966788    -0.13160
C102        C  0.01050343  0.99625820  0.31212886     0.00490
C103        C  0.03014427  0.96285953  0.31075578    -0.11690
C104        C  0.06881359  0.96290531  0.30852641     0.02980
C105        C  0.08768485  0.99657686  0.30675439    -0.11110
H106        H  0.01499836  0.05563688  0.30893837     0.08570
H107        H  0.01527945  0.93701109  0.30907749     0.06100
H108        H  0.11738399  0.99680905  0.30338403     0.05950
C109        C  0.46255156  0.35719067  0.20771898     0.02990
C110        C  0.42873202  0.33890745  0.20860610    -0.13160
C111        C  0.39566533  0.35871868  0.20719375     0.00490
C112        C  0.39683521  0.39747345  0.20492905    -0.11690
C113        C  0.43080275  0.41606109  0.20276682     0.02980
C114        C  0.46363845  0.39558078  0.20342635    -0.11110
H115        H  0.42820874  0.30908563  0.21105936     0.08570
H116        H  0.37156392  0.41328138  0.20610107     0.06100
H117        H  0.49000343  0.40951588  0.20161671     0.05950
Fe118      Fe  0.64090990  0.20527222  0.24722543     1.65780
Fe119      Fe  0.67906012  0.28161655  0.20933282     1.73250
Fe120      Fe  0.71625696  0.24395976  0.28612981     1.54420
O121        O  0.67924469  0.22678075  0.32735243    -0.81820
O122        O  0.73178267  0.26940705  0.19533997    -0.80120
O123        O  0.62524112  0.21631042  0.29987620    -0.84320
O124        O  0.67689526  0.16386898  0.26540504    -0.79180
O125        O  0.70491257  0.29673649  0.30034525    -0.80950
O126        O  0.66271651  0.24531772  0.16768441    -0.83700
C127        C  0.71148525  0.16270318  0.27121550     0.97070
C128        C  0.64482090  0.21958969  0.32849515     1.04510
O129        O  0.67853951  0.24379998  0.24779346    -1.12680
O130        O  0.62592779  0.29629731  0.22000347    -0.75110
O131        O  0.59942732  0.24146023  0.22939105    -0.78600
O132        O  0.73102280  0.19127727  0.27473369    -0.79290
C133        C  0.59769477  0.27604048  0.22309554     0.95970
O134        O  0.65430350  0.19087830  0.19459841    -0.77250
O135        O  0.69655297  0.32317724  0.24548236    -0.82440
C136        C  0.76005115  0.26617199  0.21532899     0.98590
C137        C  0.70309123  0.32498905  0.27996512     1.04510
O138        O  0.75829503  0.26123291  0.25010930    -0.78080
C139        C  0.65841323  0.21050315  0.16597307     1.02810
C140        C  0.39934083  0.35645953  0.81102002     0.02990
C141        C  0.39891970  0.39520750  0.81218841    -0.13160
C142        C  0.43205796  0.41538471  0.81116830     0.00490
C143        C  0.46565684  0.39636647  0.80743788    -0.11690
C144        C  0.46603182  0.35768676  0.80543290     0.02980
C145        C  0.43310295  0.33803007  0.80855748    -0.11110
H146        H  0.37287165  0.40978359  0.81197970     0.08570
H147        H  0.49115207  0.41161048  0.80420095     0.06100
H148        H  0.43356753  0.30818032  0.80658295     0.05950
C149        C  0.56644271  0.19585333  0.53235197     0.02990
C150        C  0.58509891  0.20083758  0.49893658    -0.13160
C151        C  0.56591181  0.20133625  0.46550590     0.00490
C152        C  0.52752049  0.19601852  0.46539959    -0.11690
C153        C  0.50827985  0.19073473  0.49865551     0.02980
C154        C  0.52797217  0.19091663  0.53203929    -0.11110
H155        H  0.61467667  0.20498815  0.49899784     0.08570
H156        H  0.51256736  0.19731407  0.43958720     0.06100
H157        H  0.51322981  0.18791682  0.55785686     0.05950
Fe158      Fe  0.71693702  0.24290605  0.71055769     1.65780
Fe159      Fe  0.64102076  0.20635656  0.74960145     1.73250
Fe160      Fe  0.68052464  0.28223621  0.78643888     1.54420
O161        O  0.73326001  0.27059253  0.80039187    -0.81820
O162        O  0.60028384  0.24269082  0.76875325    -0.80120
O163        O  0.75912381  0.26167969  0.74551690    -0.84320
O164        O  0.70433789  0.29528063  0.69459066    -0.79180
O165        O  0.66407142  0.24591065  0.82846777    -0.80950
O166        O  0.62542817  0.21938001  0.69741531    -0.83700
C167        C  0.70173699  0.32406815  0.71400406     0.97070
C168        C  0.76123153  0.26824614  0.77995207     1.04510
O169        O  0.67948420  0.24388727  0.74898169    -1.12680
O170        O  0.67656140  0.16448726  0.73085501    -0.75110
O171        O  0.73182175  0.19064778  0.72450965    -0.78600
O172        O  0.69744893  0.32314467  0.74891604    -0.79290
C173        C  0.71145083  0.16248291  0.72688980     0.95970
O174        O  0.68007667  0.22386468  0.66994872    -0.77250
O175        O  0.65386230  0.19125076  0.80197440    -0.82440
C176        C  0.59920564  0.27720027  0.77528534     0.98590
C177        C  0.65791702  0.21128938  0.83012328     1.04510
O178        O  0.62764304  0.29723493  0.77602988    -0.78080
C179        C  0.64506491  0.22056419  0.66871350     1.02810
C180        C  0.73048270  0.46021436  0.35912389     0.02990
C181        C  0.73089323  0.49383404  0.34013473    -0.13160
C182        C  0.72761230  0.52715706  0.35900030     0.00490
C183        C  0.72884951  0.52709893  0.39773689    -0.11690
C184        C  0.73128299  0.49370103  0.41743497     0.02980
C185        C  0.73048319  0.46024363  0.39792449    -0.11110
H186        H  0.73227045  0.49390969  0.31031839     0.08570
H187        H  0.72728116  0.55294898  0.41256946     0.06100
H188        H  0.72903380  0.43436659  0.41288180     0.05950
C189        C  0.39681565  0.63319710  0.20660089     0.02990
C190        C  0.39746682  0.59495816  0.20013978    -0.13160
C191        C  0.43113344  0.57590995  0.19821882     0.00490
C192        C  0.46427161  0.59568631  0.20124718    -0.11690
C193        C  0.46398968  0.63421665  0.20515989     0.02980
C194        C  0.43020550  0.65259577  0.20827274    -0.11110
H195        H  0.37192826  0.57980411  0.19736001     0.08570
H196        H  0.49030301  0.58103969  0.20076755     0.06100
H197        H  0.42994427  0.68214618  0.21275220     0.05950
Fe198      Fe  0.71844915  0.74602354  0.28812873     1.65780
Fe199      Fe  0.64350619  0.78436543  0.24751064     1.73250
Fe200      Fe  0.68300762  0.70809541  0.21094049     1.54420
O201        O  0.73619245  0.72090908  0.19774132    -0.81820
O202        O  0.60248643  0.74715074  0.23167635    -0.80120
O203        O  0.76086882  0.72744902  0.25362680    -0.84320
O204        O  0.70554446  0.69368708  0.30288625    -0.79180
O205        O  0.66556282  0.74339563  0.16857477    -0.80950
O206        O  0.62840816  0.77478138  0.30060104    -0.83700
C207        C  0.70570996  0.66542101  0.28272940     0.97070
C208        C  0.76376013  0.72258422  0.21901415     1.04510
O209        O  0.68155572  0.74626877  0.24880170    -1.12680
O210        O  0.68025990  0.82595131  0.26327584    -0.75110
O211        O  0.73384943  0.79853580  0.27639030    -0.78600
O212        O  0.70064164  0.66699277  0.24796079    -0.79290
C213        C  0.71450322  0.82708207  0.27113921     0.95970
O214        O  0.68186980  0.76422897  0.32864556    -0.77250
O215        O  0.65406433  0.79797033  0.19414228    -0.82440
C216        C  0.60119723  0.71265456  0.22503104     0.98590
C217        C  0.65731077  0.77746381  0.16629535     1.04510
O218        O  0.62976828  0.69293005  0.22116986    -0.78080
C219        C  0.64765898  0.77182727  0.32939730     1.02810
C220        C  0.56883910  0.79344885  0.53315769     0.02990
C221        C  0.58781221  0.78950025  0.49981926    -0.13160
C222        C  0.56887482  0.78962423  0.46625887     0.00490
C223        C  0.53059225  0.79518778  0.46597244    -0.11690
C224        C  0.51103024  0.79937043  0.49911064     0.02980
C225        C  0.53032551  0.79802945  0.53268143    -0.11110
H226        H  0.61734298  0.78496437  0.50002464     0.08570
H227        H  0.51584661  0.79518005  0.43999129     0.06100
H228        H  0.51530546  0.79921503  0.55844564     0.05950
C229        C  0.72561302  0.46025028  0.63480008     0.02990
C230        C  0.72906457  0.46148307  0.59620891    -0.13160
C231        C  0.73000481  0.49549601  0.57749659     0.00490
C232        C  0.72898187  0.52836084  0.59795193    -0.11690
C233        C  0.72529308  0.52730503  0.63650405     0.02980
C234        C  0.72271797  0.49324944  0.65448190    -0.11110
H235        H  0.72994299  0.43601494  0.58067786     0.08570
H236        H  0.73037356  0.55473544  0.58388114     0.06100
H237        H  0.71751469  0.49235864  0.68388707     0.05950
C238        C  0.39724762  0.63423878  0.78799343     0.02990
C239        C  0.39572826  0.59600084  0.79500223    -0.13160
C240        C  0.42837863  0.57517391  0.79814724     0.00490
C241        C  0.46252791  0.59344722  0.79614429    -0.11690
C242        C  0.46402866  0.63170205  0.79023520     0.02980
C243        C  0.43148686  0.65184316  0.78631555    -0.11110
H244        H  0.36919865  0.58249057  0.79729226     0.08570
H245        H  0.48791027  0.57783326  0.79824513     0.06100
H246        H  0.43290081  0.68121520  0.78069372     0.05950
Fe247      Fe  0.71887380  0.74363177  0.71121638     1.65780
Fe248      Fe  0.68111248  0.70526017  0.78750631     1.73250
Fe249      Fe  0.64307105  0.78150245  0.74968200     1.54420
O250        O  0.67906193  0.82303739  0.73165515    -0.81820
O251        O  0.62843813  0.69039834  0.77492024    -0.80120
O252        O  0.73371819  0.79663129  0.72196364    -0.84320
O253        O  0.68223861  0.76110490  0.66987540    -0.79180
O254        O  0.65495869  0.79639965  0.80210454    -0.80950
O255        O  0.69908670  0.66379496  0.75162801    -0.83700
C256        C  0.64745497  0.76606773  0.66871412     0.97070
C257        C  0.71351723  0.82485279  0.72504208     1.04510
O258        O  0.68124101  0.74364514  0.74962761    -1.12680
O259        O  0.73381135  0.71696750  0.80244560    -0.75110
O260        O  0.76052596  0.72627794  0.74776066    -0.78600
O261        O  0.62792743  0.76906525  0.69732697    -0.79290
C262        C  0.76213256  0.71967695  0.78232560     0.95970
O263        O  0.70657080  0.69078526  0.69688676    -0.77250
O264        O  0.66300762  0.74145512  0.82879766    -0.82440
C265        C  0.60019672  0.71064185  0.77270656     0.98590
C266        C  0.65681272  0.77605403  0.83035573     1.04510
O267        O  0.60183751  0.74541350  0.76792419    -0.78080
C268        C  0.70363990  0.66233530  0.71686184     1.02810
C269        C  0.29445620  0.78987367  0.53177124     0.02990
C270        C  0.33272999  0.79522734  0.53097167    -0.13160
C271        C  0.35120982  0.79850416  0.49709355     0.00490
C272        C  0.33071231  0.79817231  0.46420300    -0.11690
C273        C  0.29234883  0.79275318  0.46496850     0.02980
C274        C  0.27459960  0.78808883  0.49886554    -0.11110
H275        H  0.34820723  0.79534723  0.55651619     0.08570
H276        H  0.34471697  0.80104149  0.43797389     0.06100
H277        H  0.24540070  0.78184988  0.49973463     0.05950
C278        C  0.14067863  0.52892631  0.63186138     0.02990
C279        C  0.13125264  0.52778411  0.59426051    -0.13160
C280        C  0.12942904  0.49393648  0.57562294     0.00490
C281        C  0.13422923  0.46090290  0.59550294    -0.11690
C282        C  0.14317425  0.46166926  0.63322424     0.02980
C283        C  0.14650308  0.49576963  0.65093539    -0.11110
H284        H  0.12610656  0.55308798  0.57922717     0.08570
H285        H  0.13130176  0.43480344  0.58141686     0.06100
H286        H  0.15423932  0.49651241  0.67978902     0.05950
Fe287      Fe  0.21638366  0.78666508  0.74832224     1.65780
Fe288      Fe  0.14259992  0.74573883  0.70801264     1.73250
Fe289      Fe  0.18200743  0.70766911  0.78401644     1.54410
O290        O  0.23490814  0.69531871  0.77019193    -0.81820
O291        O  0.10139304  0.72918407  0.74534241    -0.80120
O292        O  0.25930239  0.75158575  0.76583947    -0.84320
O293        O  0.20287734  0.79924890  0.80151544    -0.79180
O294        O  0.16499409  0.66580819  0.74831213    -0.80950
O295        O  0.12648961  0.79910090  0.71603092    -0.83700
C296        C  0.20292646  0.77802898  0.82928732     0.97070
C297        C  0.26246216  0.71663481  0.76886589     1.04510
O298        O  0.18001844  0.74693625  0.74677648    -1.12680
O299        O  0.17972578  0.76208449  0.66706850    -0.75110
O300        O  0.23242709  0.77717661  0.69531453    -0.78600
O301        O  0.19976168  0.74313498  0.82627680    -0.79290
C302        C  0.21367259  0.77111641  0.66654845     0.95970
O303        O  0.17912695  0.82723554  0.73033718    -0.77250
O304        O  0.15499408  0.69274881  0.69421875    -0.82440
C305        C  0.10031059  0.72154262  0.77976327     0.98590
C306        C  0.15892880  0.66425440  0.71385721     1.04510
O307        O  0.12890178  0.71708979  0.79933726    -0.78080
C308        C  0.14547260  0.82803674  0.72022460     1.02810
C309        C  0.28894541  0.19252560  0.53230763     0.02990
C310        C  0.32746135  0.18762218  0.53278254    -0.13160
C311        C  0.34811171  0.18979440  0.50006717     0.00490
C312        C  0.32962372  0.19528345  0.46648531    -0.11690
C313        C  0.29118965  0.20005129  0.46584251     0.02980
C314        C  0.27110395  0.19831240  0.49867433    -0.11110
H315        H  0.34150423  0.18367843  0.55885123     0.08570
H316        H  0.34521591  0.19724917  0.44107669     0.06100
H317        H  0.24155577  0.20264529  0.49815523     0.05950
Fe318      Fe  0.14477241  0.24842392  0.71393463     1.65780
Fe319      Fe  0.18292299  0.28427009  0.79097721     1.73250
Fe320      Fe  0.22014955  0.20860048  0.75070894     1.54420
O321        O  0.18243407  0.16819703  0.73190445    -0.81820
O322        O  0.23649991  0.29817657  0.78206348    -0.80120
O323        O  0.12818005  0.19639309  0.72637517    -0.84320
O324        O  0.17944957  0.22854190  0.67204269    -0.79180
O325        O  0.20895679  0.19259088  0.80341875    -0.80950
O326        O  0.16741920  0.32691618  0.75444552    -0.83700
C327        C  0.21405383  0.22319800  0.66961804     0.97070
C328        C  0.14762925  0.16750945  0.72613342     1.04510
O329        O  0.18276924  0.24714136  0.75201536    -1.12680
O330        O  0.12974588  0.27371772  0.80463861    -0.75110
O331        O  0.10365189  0.26782005  0.74952818    -0.78600
O332        O  0.23460884  0.22166221  0.69776829    -0.79290
C333        C  0.10170028  0.27291301  0.78416986     0.95970
O334        O  0.15948866  0.30064016  0.69939267    -0.77250
O335        O  0.19837585  0.24617828  0.83177088    -0.82440
C336        C  0.26455221  0.27776462  0.77904695     0.98590
C337        C  0.20523903  0.21165959  0.83234719     1.04510
O338        O  0.26243097  0.24385260  0.76968314    -0.78080
C339        C  0.16285406  0.32887168  0.71955073     1.02810
C340        C  0.13179757  0.52742920  0.35862382     0.02990
C341        C  0.12552265  0.52751109  0.39684142    -0.13160
C342        C  0.12111360  0.49414765  0.41611882     0.00490
C343        C  0.12269668  0.46066509  0.39679437    -0.11690
C344        C  0.12985754  0.46032840  0.35869097     0.02980
C345        C  0.13296064  0.49387923  0.33972512    -0.11110
H346        H  0.12569990  0.55335488  0.41177181     0.08570
H347        H  0.11946226  0.43495416  0.41170631     0.06100
H348        H  0.13763581  0.49385976  0.31023086     0.05950
Fe349      Fe  0.21694686  0.78541015  0.24807458     1.65780
Fe350      Fe  0.18127568  0.70795857  0.21216735     1.73250
Fe351      Fe  0.14170552  0.74647977  0.28713369     1.54420
O352        O  0.17823961  0.76381653  0.32841723    -0.81820
O353        O  0.12900932  0.72020690  0.19555511    -0.80120
O354        O  0.23239936  0.77390729  0.30081948    -0.84320
O355        O  0.18056400  0.82666895  0.26643159    -0.79180
O356        O  0.15321063  0.69363448  0.30216297    -0.80950
O357        O  0.20131735  0.74293962  0.17038513    -0.83700
C358        C  0.14635113  0.82807003  0.27445546     0.97070
C359        C  0.21290318  0.76973420  0.32944380     1.04510
O360        O  0.17975099  0.74677278  0.24918189    -1.12680
O361        O  0.23341536  0.69371965  0.22735208    -0.75110
O362        O  0.25888467  0.74953339  0.23024371    -0.78600
O363        O  0.12640987  0.79955490  0.27663397    -0.79290
C364        C  0.26142586  0.71450601  0.22782240     0.95970
O365        O  0.20378780  0.79895855  0.19501048    -0.77250
O366        O  0.16173228  0.66681284  0.24782954    -0.82440
C367        C  0.10023809  0.72322111  0.21508104     0.98590
C368        C  0.15495836  0.66527107  0.28220830     1.04510
O369        O  0.10104704  0.72884553  0.24982918    -0.78080
C370        C  0.20440226  0.77784276  0.16730086     1.02810
Fe371      Fe  0.21794013  0.20599572  0.24890654     1.65780
Fe372      Fe  0.14253542  0.24508138  0.28634006     1.73250
Fe373      Fe  0.17909428  0.28024501  0.20848567     1.54420
O374        O  0.23151281  0.29643952  0.21972961    -0.81820
O375        O  0.10072128  0.26267788  0.25013357    -0.80120
O376        O  0.25878699  0.24210842  0.22938838    -0.84320
O377        O  0.20491203  0.18903221  0.19709299    -0.79180
O378        O  0.16019450  0.32279259  0.24318224    -0.80950
O379        O  0.12710708  0.19200655  0.27602788    -0.83700
C380        C  0.20283409  0.20810998  0.16798546     0.97070
C381        C  0.26009453  0.27675466  0.22315740     1.04510
O382        O  0.17992443  0.24375073  0.24795266    -1.12680
O383        O  0.17906155  0.22767695  0.32775515    -0.75110
O384        O  0.23364405  0.21984543  0.30073095    -0.78600
O385        O  0.19797207  0.24296183  0.16838715    -0.79290
C386        C  0.21364958  0.22161648  0.32914104     0.95970
O387        O  0.18211049  0.16529536  0.26918648    -0.77250
O388        O  0.15592261  0.29796724  0.29924870    -0.82440
C389        C  0.09853570  0.26527417  0.21511231     0.98590
C390        C  0.15649334  0.32570615  0.27804735     1.04510
O391        O  0.12670941  0.26605677  0.19466343    -0.78080
C392        C  0.14752511  0.16375348  0.27519538     1.02810
C393        C  0.11030493  0.58889609  0.33798732    -0.20450
C394        C  0.13831310  0.56233403  0.33837124    -0.07010
C395        C  0.17183666  0.56950529  0.31959091     0.13850
C396        C  0.17606599  0.60282653  0.30018566    -0.20500
C397        C  0.14812118  0.62941558  0.30009528    -0.07020
C398        C  0.11486400  0.62247970  0.31927501     0.13840
C399        C  0.08385658  0.65016420  0.31954573    -0.23850
H400        H  0.08473899  0.58326210  0.35242479     0.15130
H401        H  0.20174074  0.60872256  0.28604589     0.15160
C402        C  0.20390834  0.54310343  0.32146806    -0.23800
H403        H  0.05929561  0.63949587  0.33443188     0.05370
H404        H  0.07548789  0.65666693  0.29085116     0.08600
H405        H  0.09277678  0.67583966  0.33350077     0.08600
H406        H  0.19707732  0.51685034  0.30751311     0.08580
H407        H  0.21105069  0.53747185  0.35070450     0.08580
H408        H  0.22875671  0.55458852  0.30770486     0.05360
C409        C  0.11730691  0.41872231  0.30570014    -0.20450
C410        C  0.13687469  0.42545749  0.33846194    -0.07010
C411        C  0.16533368  0.40087918  0.34902973     0.13850
C412        C  0.17187212  0.36929955  0.32780584    -0.20500
C413        C  0.15177478  0.36215865  0.29557166    -0.07020
C414        C  0.12462391  0.38756284  0.28395382     0.13840
C415        C  0.10246034  0.38129539  0.24946760    -0.23850
H416        H  0.09612340  0.43800405  0.29712768     0.15130
H417        H  0.19285040  0.34982746  0.33650190     0.15160
C418        C  0.19007335  0.40835605  0.38160282    -0.23800
H419        H  0.08157588  0.40327226  0.24510637     0.05370
H420        H  0.08785272  0.35453451  0.25150222     0.08600
H421        H  0.12098619  0.38103815  0.22513543     0.08600
H422        H  0.17440612  0.40632544  0.40771074     0.08580
H423        H  0.20248449  0.43625204  0.37901018     0.08580
H424        H  0.21294437  0.38807355  0.38338759     0.05360
C425        C  0.21674647  0.19046461  0.60928231    -0.20450
C426        C  0.23128669  0.21729912  0.63302756    -0.07010
C427        C  0.26406976  0.23569565  0.62284403     0.13850
C428        C  0.28180545  0.22672041  0.58999143    -0.20500
C429        C  0.26849387  0.19883157  0.56707752    -0.07020
C430        C  0.23532425  0.18041215  0.57672555     0.13840
C431        C  0.21961448  0.14914111  0.55443654    -0.23850
H432        H  0.19181004  0.17590435  0.61710525     0.15130
H433        H  0.30664956  0.24147151  0.58224849     0.15160
C434        C  0.28149679  0.26384501  0.64722874    -0.23800
H435        H  0.21643146  0.12442036  0.57231766     0.05370
H436        H  0.23743988  0.14111445  0.53103151     0.08600
H437        H  0.19213378  0.15711942  0.54357873     0.08600
H438        H  0.29162441  0.24878525  0.67161861     0.08580
H439        H  0.26114928  0.28530393  0.65507772     0.08580
H440        H  0.30549226  0.27763739  0.63405525     0.05360
C441        C  0.23179648  0.24331930  0.39101739    -0.20450
C442        C  0.23174359  0.21508565  0.36477462    -0.07010
C443        C  0.25185784  0.18225429  0.37162947     0.13850
C444        C  0.27154393  0.17861672  0.40456043    -0.20500
C445        C  0.27155906  0.20670949  0.43084839    -0.07020
C446        C  0.25183803  0.23970536  0.42393583     0.13840
C447        C  0.25322570  0.27172083  0.45032174    -0.23850
H448        H  0.21705559  0.26869028  0.38519235     0.15130
H449        H  0.28655044  0.15331525  0.41007699     0.15160
C450        C  0.25275360  0.15008445  0.34536142    -0.23800
H451        H  0.23821987  0.29609562  0.43934676     0.05370
H452        H  0.28232819  0.27991730  0.45506087     0.08600
H453        H  0.24034156  0.26414807  0.47697697     0.08600
H454        H  0.23502071  0.15391864  0.32086876     0.08580
H455        H  0.28146365  0.14551470  0.33583968     0.08580
H456        H  0.24304142  0.12483606  0.35980425     0.05360
C457        C  0.09324176  0.50230727  0.51731436    -0.20450
C458        C  0.12666583  0.49332640  0.53476270    -0.07010
C459        C  0.15793851  0.48534456  0.51295717     0.13850
C460        C  0.15484243  0.48524039  0.47445383    -0.20500
C461        C  0.12153833  0.49387880  0.45697615    -0.07020
C462        C  0.09037517  0.50278490  0.47852690     0.13840
C463        C  0.05425622  0.51248526  0.46057376    -0.23850
H464        H  0.06945276  0.50899718  0.53406335     0.15130
H465        H  0.17878985  0.47898167  0.45772431     0.15160
C466        C  0.19502778  0.47817268  0.53018044    -0.23800
H467        H  0.03256043  0.51838712  0.48132296     0.05370
H468        H  0.04479081  0.48914007  0.44324775     0.08600
H469        H  0.05773002  0.53735987  0.44298165     0.08600
H470        H  0.19382818  0.45290937  0.54728787     0.08580
H471        H  0.20311536  0.50194629  0.54762862     0.08580
H472        H  0.21680276  0.47411991  0.50907056     0.05360
C473        C  0.12637388  0.56894955  0.68549490    -0.20450
C474        C  0.14529496  0.56430419  0.65196250    -0.07010
C475        C  0.17057456  0.59176081  0.64038253     0.13850
C476        C  0.17499086  0.62361220  0.66180444    -0.20500
C477        C  0.15583016  0.62831952  0.69506087    -0.07020
C478        C  0.13151941  0.60046205  0.70732175     0.13840
C479        C  0.11010006  0.60436713  0.74268972    -0.23850
H480        H  0.10743350  0.54767315  0.69466249     0.15130
H481        H  0.19371103  0.64508514  0.65260136     0.15160
C482        C  0.19425154  0.58716422  0.60652531    -0.23800
H483        H  0.09148408  0.58049262  0.74746913     0.05370
H484        H  0.09298768  0.62974223  0.74168824     0.08600
H485        H  0.12937849  0.60597790  0.76637418     0.08370
H486        H  0.17715026  0.58786695  0.58127149     0.08580
H487        H  0.20948168  0.56064442  0.60805923     0.08580
H488        H  0.21486412  0.60969191  0.60392437     0.05360
C489        C  0.12886976  0.42266309  0.68780672    -0.20450
C490        C  0.14909907  0.42737556  0.65505240    -0.07010
C491        C  0.17626630  0.40099860  0.64573451     0.13850
C492        C  0.18123942  0.37000790  0.66846089    -0.20500
C493        C  0.16043375  0.36495113  0.70067651    -0.07020
C494        C  0.13427244  0.39187515  0.71077111     0.13840
C495        C  0.11113663  0.38764322  0.74494301    -0.23850
H496        H  0.10846661  0.44314909  0.69529768     0.15130
H497        H  0.20123490  0.34917581  0.66077734     0.15160
C498        C  0.20079033  0.40553919  0.61254590    -0.23800
H499        H  0.09120972  0.41066977  0.74805546     0.05370
H500        H  0.12927243  0.38750557  0.76955610     0.08600
H501        H  0.09528023  0.36146495  0.74371526     0.08600
H502        H  0.21423191  0.43305703  0.61303484     0.08580
H503        H  0.18445879  0.40229794  0.58700640     0.08580
H504        H  0.22286790  0.38433646  0.61187529     0.05360
C505        C  0.28221546  0.75912899  0.40666639    -0.20450
C506        C  0.27133069  0.78757641  0.43040081    -0.07010
C507        C  0.24022891  0.80937579  0.42131536     0.13850
C508        C  0.22046213  0.80163068  0.38898188    -0.20500
C509        C  0.23167306  0.77344442  0.36516252    -0.07020
C510        C  0.26298130  0.75198740  0.37397317     0.13840
C511        C  0.27579064  0.72111995  0.34930648    -0.23850
H512        H  0.30586073  0.74231351  0.41388008     0.15130
H513        H  0.19698652  0.81856535  0.38147775     0.15160
C514        C  0.22892518  0.84197868  0.44441824    -0.23800
H515        H  0.29962038  0.70609538  0.36134165     0.05370
H516        H  0.28458431  0.73225404  0.32217971     0.08600
H517        H  0.25305376  0.70103179  0.34521877     0.08600
H518        H  0.25257136  0.86118349  0.44743554     0.08580
H519        H  0.21957078  0.83285004  0.47203001     0.08580
H520        H  0.20582521  0.85748728  0.43159121     0.05360
C521        C  0.26141468  0.81552442  0.58535577    -0.20450
C522        C  0.27472776  0.78446028  0.56680493    -0.07010
C523        C  0.26667416  0.74876922  0.58027883     0.13850
C524        C  0.24553455  0.74491949  0.61244972    -0.20500
C525        C  0.23246819  0.77602369  0.63112105    -0.07020
C526        C  0.24040173  0.81170030  0.61755629     0.13840
C527        C  0.22638137  0.84563191  0.63693759    -0.23850
H528        H  0.26727616  0.84277416  0.57441717     0.15130
H529        H  0.23969383  0.71767253  0.62341479     0.15160
C530        C  0.28061066  0.71491266  0.56079174    -0.23800
H531        H  0.23453013  0.87131500  0.62227229     0.05370
H532        H  0.23778897  0.84682796  0.66529104     0.08600
H533        H  0.19581920  0.84477602  0.63843605     0.08600
H534        H  0.31117910  0.71560943  0.55952369     0.08580
H535        H  0.26939145  0.71401855  0.53234964     0.08580
H536        H  0.27218843  0.68919018  0.57523510     0.05360
C537        C  0.55154616  0.67013095  0.74820585    -0.20450
C538        C  0.56428451  0.69258226  0.77684943    -0.07010
C539        C  0.54459984  0.69434547  0.81032442     0.13850
C540        C  0.51217205  0.67361003  0.81431944    -0.20500
C541        C  0.49948699  0.65100754  0.78570437    -0.07020
C542        C  0.51906214  0.64953153  0.75212828     0.13840
C543        C  0.50529188  0.62679257  0.72029440    -0.23850
H544        H  0.56715510  0.66868323  0.72276481     0.15130
H545        H  0.49665146  0.67494013  0.83981015     0.15160
C546        C  0.55831941  0.71738840  0.84198795    -0.23800
H547        H  0.52357851  0.62931817  0.69586491     0.05370
H548        H  0.47730538  0.63619150  0.71220199     0.08600
H549        H  0.50410105  0.59726064  0.72837017     0.08600
H550        H  0.55984647  0.74679375  0.83348320     0.08580
H551        H  0.58617203  0.70790363  0.85043802     0.08580
H552        H  0.53981853  0.71535238  0.86629583     0.05360
C553        C  0.30608735  0.66854310  0.74891527    -0.20450
C554        C  0.29912959  0.69913461  0.77142498    -0.07010
C555        C  0.32529075  0.70925810  0.79836632     0.13850
C556        C  0.35690709  0.68741690  0.80326182    -0.20500
C557        C  0.36342263  0.65623057  0.78127151    -0.07020
C558        C  0.33840849  0.64775156  0.75259802     0.13840
C559        C  0.34543727  0.61816182  0.72439630    -0.23850
H560        H  0.28624999  0.66107898  0.72784296     0.15130
H561        H  0.37647486  0.69441168  0.82471154     0.15160
C562        C  0.31915550  0.74190903  0.82307922    -0.23800
H563        H  0.34315990  0.63021415  0.69630958     0.05370
H564        H  0.32460482  0.59591441  0.72739274     0.08600
H565        H  0.37335372  0.60610682  0.72645014     0.08600
H566        H  0.29306099  0.73809133  0.83837906     0.08580
H567        H  0.31760930  0.76755040  0.80635635     0.08580
H568        H  0.34176353  0.74520189  0.84344357     0.05360
C569        C  0.73714471  0.60389120  0.70706597    -0.20450
C570        C  0.70699927  0.62642640  0.69842937    -0.07010
C571        C  0.68306602  0.61640551  0.66943830     0.13850
C572        C  0.68989726  0.58399971  0.64965164    -0.20500
C573        C  0.72030898  0.56162169  0.65788676    -0.07020
C574        C  0.74435804  0.57170400  0.68689752     0.13840
C575        C  0.77848437  0.54964878  0.69561586    -0.23850
H576        H  0.75586038  0.61226122  0.72876747     0.15130
H577        H  0.67136194  0.57597242  0.62764824     0.15160
C578        C  0.65007795  0.63964684  0.65961337    -0.23800
H579        H  0.79548542  0.56312633  0.71717978     0.05370
H580        H  0.79566579  0.54684586  0.67046355     0.08600
H581        H  0.77087557  0.52193721  0.70603547     0.08600
H582        H  0.65922200  0.66719007  0.64981643     0.08580
H583        H  0.63212982  0.64290368  0.68417865     0.08580
H584        H  0.63341369  0.62694667  0.63732894     0.05360
C585        C  0.45123536  0.77095945  0.48244048    -0.20450
C586        C  0.47007770  0.80064956  0.49849528    -0.07010
C587        C  0.44963512  0.83040659  0.51321590     0.13850
C588        C  0.41085090  0.82926769  0.51207083    -0.20500
C589        C  0.39210929  0.79940147  0.49613466    -0.07020
C590        C  0.41261290  0.76987155  0.48114447     0.13840
C591        C  0.39394244  0.73644057  0.46499554    -0.23850
H592        H  0.46694920  0.74814148  0.47129985     0.15130
H593        H  0.39501020  0.85181856  0.52355051     0.15160
C594        C  0.46850083  0.86384020  0.52903758    -0.23800
H595        H  0.41419371  0.71509643  0.45660501     0.05370
H596        H  0.37799447  0.74427434  0.44012295     0.08600
H597        H  0.37515548  0.72392395  0.48571135     0.08600
H598        H  0.48720161  0.87611607  0.50810558     0.08580
H599        H  0.48461451  0.85615148  0.55383710     0.08580
H600        H  0.44832739  0.88528737  0.53736260     0.05360
C601        C  0.57636270  0.76051248  0.59243983    -0.20450
C602        C  0.58895623  0.78810584  0.56832747    -0.07010
C603        C  0.62172533  0.80756699  0.57699305     0.13850
C604        C  0.64164780  0.79782758  0.60869400    -0.20500
C605        C  0.62859900  0.77073618  0.63304931    -0.07020
C606        C  0.59531146  0.75205820  0.62502110     0.13840
C607        C  0.57985852  0.72277266  0.65032933    -0.23850
H608        H  0.55157865  0.74528683  0.58559830     0.15130
H609        H  0.66649690  0.81298831  0.61553203     0.15160
C610        C  0.63559368  0.83984939  0.55461919    -0.23800
H611        H  0.55500798  0.70941418  0.63846919     0.05370
H612        H  0.57168006  0.73503749  0.67706182     0.08600
H613        H  0.60078338  0.70106544  0.65515202     0.08600
H614        H  0.61654545  0.84806051  0.53220863     0.08580
H615        H  0.66281081  0.83298230  0.54247332     0.08580
H616        H  0.63882211  0.86421206  0.57281543     0.05360
C617        C  0.63220384  0.75046554  0.39236427    -0.20450
C618        C  0.62899085  0.77753553  0.36495579    -0.07010
C619        C  0.60614090  0.80857197  0.37100049     0.13850
C620        C  0.58685274  0.81153318  0.40429507    -0.20500
C621        C  0.58929501  0.78404167  0.43142704    -0.07020
C622        C  0.61192514  0.75277439  0.42517437     0.13840
C623        C  0.61410791  0.72049017  0.45142492    -0.23850
H624        H  0.64928390  0.72644326  0.38739179     0.15130
H625        H  0.56983008  0.83557227  0.40931456     0.15160
C626        C  0.60274312  0.83917858  0.34291093    -0.23800
H627        H  0.60724878  0.69470662  0.43646843     0.05370
H628        H  0.59458858  0.72246267  0.47476742     0.08600
H629        H  0.64254439  0.71818459  0.46248791     0.08600
H630        H  0.58936290  0.82878838  0.31749924     0.08580
H631        H  0.63048902  0.85022215  0.33612916     0.08580
H632        H  0.58569044  0.86234806  0.35332414     0.05360
C633        C  0.35562643  0.68612854  0.19234010    -0.20450
C634        C  0.36173663  0.65351195  0.21253084    -0.07010
C635        C  0.33608169  0.64310614  0.24011342     0.13850
C636        C  0.30417345  0.66434994  0.24510414    -0.20500
C637        C  0.29780152  0.69649468  0.22442014    -0.07020
C638        C  0.32432296  0.70803627  0.19833023     0.13840
C639        C  0.31925191  0.74268826  0.17593074    -0.23850
H640        H  0.37559233  0.69454327  0.17173015     0.15130
H641        H  0.28393324  0.65583878  0.26542515     0.15160
C642        C  0.34269011  0.61080341  0.26560520    -0.23800
H643        H  0.34198384  0.74682767  0.15583369     0.05370
H644        H  0.31858703  0.76701446  0.19440101     0.08600
H645        H  0.29307205  0.74101152  0.16040870     0.08600
H646        H  0.37013338  0.61345168  0.27887159     0.08580
H647        H  0.34108230  0.58446437  0.25035477     0.08580
H648        H  0.32168836  0.60942429  0.28784123     0.05360
C649        C  0.50329740  0.67838323  0.23951909    -0.20450
C650        C  0.49886376  0.65528497  0.20874053    -0.07010
C651        C  0.52771578  0.65274401  0.18261027     0.13850
C652        C  0.56078603  0.67154583  0.18915333    -0.20500
C653        C  0.56521643  0.69443001  0.21995396    -0.07020
C654        C  0.53593982  0.69836435  0.24521775     0.13840
C655        C  0.53946507  0.72239119  0.27885300    -0.23850
H656        H  0.48121215  0.68040542  0.25952687     0.15130
H657        H  0.58308967  0.66908750  0.16940095     0.15160
C658        C  0.52435521  0.63184696  0.14688123    -0.23800
H659        H  0.51444686  0.72098147  0.29643995     0.05370
H660        H  0.54335657  0.75159450  0.27044697     0.08600
H661        H  0.56338223  0.71329897  0.29567168     0.08600
H662        H  0.49634728  0.62086217  0.14187008     0.08580
H663        H  0.54426989  0.60860581  0.14672262     0.08580
H664        H  0.53080622  0.65061422  0.12349460     0.05360
C665        C  0.70182444  0.50958483  0.47718322    -0.20450
C666        C  0.73179120  0.49395126  0.45844957    -0.07010
C667        C  0.76171042  0.47963532  0.47904879     0.13850
C668        C  0.76061071  0.48090489  0.51780081    -0.20500
C669        C  0.73052236  0.49639094  0.53650643    -0.07020
C670        C  0.70067538  0.51079623  0.51587981     0.13840
C671        C  0.66689391  0.52617999  0.53449583    -0.23850
H672        H  0.67891784  0.52047307  0.46135491     0.15130
H673        H  0.78338714  0.46980624  0.53366930     0.15160
C674        C  0.79523845  0.46389606  0.46033616    -0.23800
H675        H  0.64539859  0.53418670  0.51420233     0.05370
H676        H  0.67409731  0.55116424  0.55048095     0.08600
H677        H  0.65488438  0.50510170  0.55324925     0.08600
H678        H  0.80722461  0.48471153  0.44127766     0.08580
H679        H  0.78765182  0.43883258  0.44467722     0.08580
H680        H  0.81682605  0.45592732  0.48054852     0.05360
C681        C  0.74632823  0.59126900  0.34447977    -0.20450
C682        C  0.72212636  0.56189517  0.33805786    -0.07010
C683        C  0.69276991  0.56649156  0.31255272     0.13850
C684        C  0.68882404  0.60023321  0.29392628    -0.20500
C685        C  0.71266547  0.62969552  0.30088626    -0.07020
C686        C  0.74191085  0.62519023  0.32641124     0.13840
C687        C  0.76909745  0.65571341  0.33420366    -0.23850
H688        H  0.76877442  0.58761986  0.36387543     0.15130
H689        H  0.66629130  0.60406693  0.27466430     0.15160
C690        C  0.66430458  0.53686127  0.30607031    -0.23800
H691        H  0.79149795  0.64640756  0.35290904     0.05370
H692        H  0.75504939  0.67917667  0.34780340     0.08600
H693        H  0.78194875  0.66520568  0.30806378     0.08600
H694        H  0.65275184  0.52728408  0.33277185     0.08580
H695        H  0.67660071  0.51336158  0.29109381     0.08580
H696        H  0.64106819  0.54711855  0.28895147     0.05360
C697        C  0.73407887  0.38351365  0.70618601    -0.20450
C698        C  0.70585580  0.35974604  0.69488675    -0.07010
C699        C  0.68497418  0.36852184  0.66315096     0.13850
C700        C  0.69269018  0.40108802  0.64367491    -0.20500
C701        C  0.72125298  0.42471811  0.65463801    -0.07020
C702        C  0.74272440  0.41539302  0.68596517     0.13840
C703        C  0.77592073  0.43733638  0.69793524    -0.23850
H704        H  0.75075784  0.37617976  0.72989499     0.15130
H705        H  0.67593598  0.40847911  0.62003995     0.15160
C706        C  0.65375625  0.34426013  0.65042327    -0.23800
H707        H  0.80024992  0.41883811  0.69970060     0.05370
H708        H  0.77077181  0.44944228  0.72552093     0.08600
H709        H  0.78318798  0.45971766  0.67840408     0.08600
H710        H  0.63352548  0.34083490  0.67312976     0.08580
H711        H  0.66434202  0.31685109  0.64201094     0.08580
H712        H  0.63910823  0.35633078  0.62636379     0.05360
C713        C  0.40829219  0.16100683  0.48304296    -0.20450
C714        C  0.38913491  0.18934945  0.50111677    -0.07010
C715        C  0.40937799  0.21784256  0.51841309     0.13850
C716        C  0.44806943  0.21718498  0.51732049    -0.20500
C717        C  0.46727241  0.18903427  0.49911908    -0.07020
C718        C  0.44712459  0.16036101  0.48201821     0.13840
C719        C  0.46642271  0.12855480  0.46365303    -0.23850
H720        H  0.39273996  0.13924115  0.46977300     0.15130
H721        H  0.46355509  0.23918048  0.53030572     0.15160
C722        C  0.39037973  0.24982888  0.53685984    -0.23800
H723        H  0.44651663  0.10774429  0.45328497     0.05370
H724        H  0.48497859  0.11470654  0.48370902     0.08600
H725        H  0.48280079  0.13849966  0.43982086     0.08600
H726        H  0.37452559  0.24007602  0.56110409     0.08580
H727        H  0.37148876  0.26359144  0.51705933     0.08580
H728        H  0.41042198  0.27072870  0.54677422     0.05360
C729        C  0.57400023  0.22726489  0.59219549    -0.20450
C730        C  0.58670121  0.20036086  0.56760020    -0.07010
C731        C  0.61950039  0.18079917  0.57604229     0.13850
C732        C  0.63920933  0.18965178  0.60814406    -0.20500
C733        C  0.62603408  0.21608848  0.63299360    -0.07020
C734        C  0.59282110  0.23498308  0.62498391     0.13840
C735        C  0.57730106  0.26384327  0.65048511    -0.23850
H736        H  0.54921111  0.24258959  0.58553875     0.15130
H737        H  0.66407159  0.17440512  0.61476720     0.15160
C738        C  0.63365350  0.14933944  0.55295111    -0.23800
H739        H  0.55278562  0.27773345  0.63847233     0.05370
H740        H  0.59841391  0.28521982  0.65600107     0.08600
H741        H  0.56850907  0.25094790  0.67679905     0.08600
H742        H  0.66093250  0.15673690  0.54119513     0.08580
H743        H  0.61480710  0.14180603  0.53018438     0.08580
H744        H  0.63684391  0.12440137  0.57052926     0.05360
C745        C  0.41357729  0.47277479  0.77869350    -0.20450
C746        C  0.43095026  0.45634191  0.80909964    -0.07010
C747        C  0.44658358  0.47907653  0.83654827     0.13850
C748        C  0.44468531  0.51771277  0.83266668    -0.20500
C749        C  0.42735364  0.53421639  0.80211238    -0.07020
C750        C  0.41174389  0.51128445  0.77469337     0.13840
C751        C  0.39435508  0.52702923  0.74039108    -0.23850
H752        H  0.40179252  0.45522195  0.75761762     0.15130
H753        H  0.45685331  0.53521000  0.85355904     0.15160
C754        C  0.46452035  0.46269371  0.87027508    -0.23800
H755        H  0.38656078  0.50508750  0.72057220     0.05370
H756        H  0.41400271  0.54588770  0.72633243     0.08600
H757        H  0.36883681  0.54207612  0.74761417     0.08600
H758        H  0.48884141  0.44603688  0.86226238     0.08580
H759        H  0.44448195  0.44483561  0.88506536     0.08580
H760        H  0.47405032  0.48438611  0.88960851     0.05360
C761        C  0.30326977  0.31494282  0.82140171    -0.20450
C762        C  0.30052558  0.29476855  0.78842684    -0.07010
C763        C  0.33083291  0.29420853  0.76421746     0.13850
C764        C  0.36263052  0.31412995  0.77286377    -0.20500
C765        C  0.36506050  0.33509087  0.80515036    -0.07020
C766        C  0.33528853  0.33498029  0.83019927     0.13840
C767        C  0.33749377  0.35500196  0.86644031    -0.23850
H768        H  0.28005648  0.31526600  0.84021132     0.15130
H769        H  0.38535408  0.31454993  0.75348035     0.15160
C770        C  0.32844545  0.27590174  0.72755660    -0.23800
H771        H  0.31246396  0.35030585  0.88344533     0.05370
H772        H  0.34008139  0.38511679  0.86179350     0.08600
H773        H  0.36170354  0.34500917  0.88229337     0.08600
H774        H  0.30624924  0.29009976  0.71215744     0.08580
H775        H  0.32233372  0.24609400  0.73102347     0.08580
H776        H  0.35436598  0.27854315  0.71146322     0.05360
C777        C  0.52607913  0.33197564  0.82512693    -0.20450
C778        C  0.50017685  0.33726310  0.79705832    -0.07010
C779        C  0.50604730  0.32118201  0.76204431     0.13850
C780        C  0.53797064  0.30023316  0.75589664    -0.20500
C781        C  0.56403766  0.29530689  0.78387104    -0.07020
C782        C  0.55802783  0.31114437  0.81894522     0.13840
C783        C  0.58504644  0.30555566  0.85004926    -0.23850
H784        H  0.52108577  0.34393927  0.85200899     0.15130
H785        H  0.54310568  0.28852766  0.72895114     0.15160
C786        C  0.47913431  0.32685664  0.73091070    -0.23800
H787        H  0.57541220  0.31871368  0.87591096     0.05370
H788        H  0.61209871  0.31787335  0.84279900     0.08600
H789        H  0.58862044  0.27559237  0.85544801     0.08600
H790        H  0.47560936  0.35681838  0.72552874     0.08580
H791        H  0.45209734  0.31455436  0.73811194     0.08580
H792        H  0.48879048  0.31367936  0.70506303     0.05360
C793        C  0.73972920  0.36200891  0.32351816    -0.20450
C794        C  0.71083815  0.36073250  0.29769522    -0.07010
C795        C  0.68967788  0.39263934  0.29104974     0.13850
C796        C  0.69692065  0.42447419  0.31165909    -0.20500
C797        C  0.72561558  0.42571229  0.33780046    -0.07020
C798        C  0.74806721  0.39428043  0.34290356     0.13840
C799        C  0.78170145  0.39396065  0.36730605    -0.23850
H800        H  0.75657478  0.33769614  0.32805362     0.15130
H801        H  0.67956844  0.44846535  0.30776744     0.15160
C802        C  0.65864936  0.39293492  0.26344479    -0.23800
H803        H  0.80591742  0.38454901  0.35116030     0.05370
H804        H  0.77729682  0.37462733  0.39069366     0.08600
H805        H  0.78873207  0.42152327  0.37826956     0.08600
H806        H  0.63824116  0.37120552  0.27053440     0.08580
H807        H  0.66966924  0.38792140  0.23537899     0.08580
H808        H  0.64410319  0.41988633  0.26292140     0.05360
C809        C  0.62622821  0.24277728  0.39001459    -0.20450
C810        C  0.62630008  0.21407555  0.36427089    -0.07010
C811        C  0.60640292  0.18131369  0.37186262     0.13850
C812        C  0.58679754  0.17813257  0.40501030    -0.20500
C813        C  0.58639670  0.20690612  0.43064483    -0.07020
C814        C  0.60613906  0.23978368  0.42301714     0.13840
C815        C  0.60476075  0.27233856  0.44872752    -0.23850
H816        H  0.64100261  0.26803032  0.38372498     0.15130
H817        H  0.57183145  0.15294450  0.41113118     0.15160
C818        C  0.60647005  0.14926045  0.34547089    -0.23800
H819        H  0.61975088  0.29650092  0.43724162     0.05370
H820        H  0.61769767  0.26533270  0.47550550     0.08600
H821        H  0.57566557  0.28060253  0.45332921     0.08600
H822        H  0.63524224  0.14041811  0.34010486     0.08580
H823        H  0.59316304  0.15728444  0.31912289     0.08580
H824        H  0.59112445  0.12520594  0.35671346     0.05360
C825        C  0.41600274  0.47528392  0.17105143    -0.20450
C826        C  0.43192752  0.45697203  0.20127448    -0.07010
C827        C  0.44785941  0.47792917  0.22995026     0.13850
C828        C  0.44766797  0.51655867  0.22753874    -0.20500
C829        C  0.43180177  0.53496470  0.19737908    -0.07020
C830        C  0.41606022  0.51400869  0.16850333     0.13840
C831        C  0.40001382  0.53136898  0.13428782    -0.23850
H832        H  0.40383581  0.45919822  0.14903225     0.15130
H833        H  0.45934486  0.53265508  0.24980341     0.15160
C834        C  0.46363258  0.45984051  0.26396035    -0.23800
H835        H  0.41429023  0.52029287  0.10962485     0.05370
H836        H  0.40308071  0.56176291  0.13360896     0.08600
H837        H  0.37024256  0.52454416  0.13240079     0.08600
H838        H  0.48807988  0.44303154  0.25678396     0.08580
H839        H  0.44246699  0.44195504  0.27704108     0.08580
H840        H  0.47258386  0.48053171  0.28461647     0.05360
C841        C  0.29998145  0.31992305  0.18878403    -0.20450
C842        C  0.29588031  0.29550604  0.21864521    -0.07010
C843        C  0.32462466  0.29187155  0.24456154     0.13850
C844        C  0.35639046  0.31356441  0.24045042    -0.20500
C845        C  0.36041641  0.33831116  0.21075166    -0.07020
C846        C  0.33209257  0.34096383  0.18412951     0.13840
C847        C  0.33602937  0.36454587  0.15001940    -0.23850
H848        H  0.27789872  0.32232185  0.16878246     0.15130
H849        H  0.37830847  0.31128357  0.26063686     0.15160
C850        C  0.32147526  0.26616871  0.27714965    -0.23800
H851        H  0.31241086  0.36081333  0.13091445     0.05370
H852        H  0.36155531  0.35688771  0.13501497     0.08600
H853        H  0.33702183  0.39414736  0.15738578     0.08600
H854        H  0.31892532  0.23726348  0.26750032     0.08580
H855        H  0.29691265  0.27349850  0.29383595     0.08580
H856        H  0.34608900  0.26775028  0.29527614     0.05360
C857        C  0.51863909  0.32958716  0.18126760    -0.20450
C858        C  0.49672301  0.33582491  0.21224645    -0.07010
C859        C  0.50695265  0.32068687  0.24672149     0.13850
C860        C  0.53947015  0.29986110  0.24944481    -0.20500
C861        C  0.56163385  0.29396574  0.21844456    -0.07020
C862        C  0.55087018  0.30858998  0.18395227     0.13840
C863        C  0.57257380  0.30073405  0.14969831    -0.23850
H864        H  0.51017318  0.34077226  0.15483761     0.15130
H865        H  0.54811190  0.28895422  0.27592509     0.15160
C866        C  0.48411674  0.32738346  0.28071904    -0.23800
H867        H  0.56016733  0.31383223  0.12491822     0.05370
H868        H  0.57274809  0.27045276  0.14545759     0.08600
H869        H  0.60116041  0.31123215  0.15259262     0.08600
H870        H  0.45620950  0.31538791  0.27716685     0.08580
H871        H  0.48163119  0.35750520  0.28560759     0.08580
H872        H  0.49671470  0.31458660  0.30555276     0.05360
C873        C  0.10948587  0.92606534  0.26863758    -0.20450
C874        C  0.08941439  0.92841772  0.30154240    -0.07010
C875        C  0.08969872  0.89836990  0.32641554     0.13850
C876        C  0.10921447  0.86625908  0.31702928    -0.20500
C877        C  0.12872251  0.86369322  0.28365453    -0.07020
C878        C  0.12893607  0.89411316  0.25940637     0.13840
C879        C  0.14703039  0.89194482  0.22252590    -0.23850
H880        H  0.10899211  0.94909516  0.24947949     0.15130
H881        H  0.10922689  0.84293081  0.33581551     0.15160
C882        C  0.07044579  0.90038720  0.36312763    -0.23800
H883        H  0.14406705  0.91792518  0.20647201     0.05370
H884        H  0.13324442  0.86956062  0.20704136     0.08600
H885        H  0.17688446  0.88621983  0.22586964     0.08600
H886        H  0.04031321  0.90309674  0.35911654     0.08580
H887        H  0.08083650  0.92446422  0.37885429     0.08580
H888        H  0.07531864  0.87518796  0.37993025     0.05360
C889        C  0.10798007  0.11232925  0.25543516    -0.20450
C890        C  0.13002727  0.12806881  0.28288933    -0.07010
C891        C  0.13147416  0.11167638  0.31831233     0.13850
C892        C  0.11089286  0.07967587  0.32527291    -0.20500
C893        C  0.08846923  0.06424689  0.29797379    -0.07020
C894        C  0.08729305  0.08039223  0.26250129     0.13840
C895        C  0.06469876  0.06362355  0.23199422    -0.23850
H896        H  0.10669275  0.12533020  0.22849986     0.15130
H897        H  0.11200164  0.06688727  0.35231677     0.15160
C898        C  0.15348901  0.12766543  0.34965337    -0.23800
H899        H  0.06768761  0.07925066  0.20577841     0.05370
H900        H  0.03509604  0.06365081  0.23965565     0.08600
H901        H  0.07380549  0.03481507  0.22708353     0.08600
H902        H  0.16845282  0.15313382  0.34193798     0.08580
H903        H  0.13473950  0.13445272  0.37283974     0.08580
H904        H  0.17399739  0.10707613  0.35930392     0.05360
C905        C  0.75320024  0.92006751  0.74127268    -0.20450
C906        C  0.77212922  0.92606440  0.70797545    -0.07010
C907        C  0.76971972  0.89962357  0.67960824     0.13850
C908        C  0.74966636  0.86710930  0.68585602    -0.20500
C909        C  0.73126742  0.86090672  0.71934255    -0.07020
C910        C  0.73270014  0.88776422  0.74728223     0.13840
C911        C  0.71377469  0.88179913  0.78377973    -0.23850
H912        H  0.75483395  0.94066046  0.76280810     0.15130
H913        H  0.74822702  0.84634891  0.66445636     0.15160
C914        C  0.78716997  0.90607939  0.64244451    -0.23800
H915        H  0.71848865  0.90522705  0.80285745     0.05370
H916        H  0.72448206  0.85633867  0.79709347     0.08600
H917        H  0.68361557  0.87900680  0.77951107     0.08600
H918        H  0.81754031  0.90788982  0.64515307     0.08580
H919        H  0.77649288  0.93212976  0.63031403     0.08580
H920        H  0.78091570  0.88332695  0.62299140     0.05360
C921        C  0.77737859  0.08299263  0.74133595    -0.20450
C922        C  0.77155552  0.06259818  0.70910925    -0.07010
C923        C  0.74440919  0.07422036  0.68359503     0.13850
C924        C  0.72356052  0.10594624  0.69113797    -0.20500
C925        C  0.72963774  0.12643236  0.72323884    -0.07020
C926        C  0.75681693  0.11488853  0.74864865     0.13840
C927        C  0.76365616  0.13585960  0.78378195    -0.23850
H928        H  0.79787657  0.07366835  0.76100699     0.15130
H929        H  0.70338138  0.11560340  0.67128836     0.15160
C930        C  0.73846084  0.05416770  0.64775445    -0.23800
H931        H  0.78513155  0.12245734  0.80104079     0.05370
H932        H  0.73779445  0.13710898  0.80006867     0.08600
H933        H  0.77305543  0.16429388  0.77741999     0.08600
H934        H  0.72861393  0.02568418  0.65303055     0.08580
H935        H  0.76472560  0.05310961  0.63209264     0.08580
H936        H  0.71756967  0.06818250  0.63025851     0.05360
C937        C  0.90933903  0.01360479  0.66783277    -0.20450
C938        C  0.89187158  0.99507888  0.69711023    -0.07010
C939        C  0.91381860  0.97828045  0.72476114     0.13850
C940        C  0.95242917  0.97979805  0.72196169    -0.20500
C941        C  0.96984275  0.99814933  0.69265032    -0.07020
C942        C  0.94802897  0.01529186  0.66522536     0.13840
C943        C  0.96545517  0.03447196  0.63269893    -0.23850
H944        H  0.89255708  0.02659390  0.64675923     0.15130
H945        H  0.96926800  0.96691115  0.74305979     0.15160
C946        C  0.89686460  0.96008975  0.75814778    -0.23800
H947        H  0.94440115  0.04511654  0.61315926     0.05370
H948        H  0.98340826  0.01485353  0.61761638     0.08600
H949        H  0.98218323  0.05824244  0.64214540     0.08600
H950        H  0.88112248  0.93521496  0.75007459     0.08580
H951        H  0.87827619  0.97980893  0.77230019     0.08580
H952        H  0.91816999  0.95111414  0.77823993     0.05360
C953        C  0.10824385  0.92570292  0.72781392    -0.20450
C954        C  0.08908423  0.92942571  0.69452706    -0.07010
C955        C  0.08952689  0.90021331  0.66891786     0.13850
C956        C  0.10862882  0.86756911  0.67784303    -0.20500
C957        C  0.12746455  0.86374805  0.71156498    -0.07020
C958        C  0.12717865  0.89332741  0.73663120     0.13840
C959        C  0.14414856  0.88982145  0.77394127    -0.23850
H960        H  0.10737892  0.94801284  0.74763141     0.15130
H961        H  0.10895137  0.84492591  0.65840764     0.15160
C962        C  0.07081822  0.90375880  0.63204299    -0.23800
H963        H  0.14044767  0.91508741  0.79078138     0.05370
H964        H  0.17415508  0.88458493  0.77132046     0.08600
H965        H  0.13012397  0.86667695  0.78823757     0.08600
H966        H  0.08217045  0.92791027  0.61693935     0.08580
H967        H  0.04072092  0.90744073  0.63577216     0.08580
H968        H  0.07513750  0.87884567  0.61484362     0.05360
C969        C  0.08363086  0.09639115  0.68307830    -0.20450
C970        C  0.09081398  0.06515329  0.70469402    -0.07010
C971        C  0.11721542  0.06759666  0.73353976     0.13850
C972        C  0.13615659  0.10098603  0.73924184    -0.20500
C973        C  0.12858353  0.13229072  0.71782637    -0.07020
C974        C  0.10184987  0.12991562  0.68933631     0.13840
C975        C  0.09280685  0.16230866  0.66469242    -0.23850
H976        H  0.06346968  0.09450990  0.66110555     0.15130
H977        H  0.15619794  0.10301808  0.76130072     0.15160
C978        C  0.12421956  0.03601859  0.75983058    -0.23800
H979        H  0.07344227  0.15454396  0.64231101     0.05370
H980        H  0.11836921  0.17300911  0.65165507     0.08600
H981        H  0.07936210  0.18447167  0.68083742     0.08600
H982        H  0.13843246  0.01307513  0.74568897     0.08580
H983        H  0.09775586  0.02611098  0.77161956     0.08580
H984        H  0.14219018  0.04448317  0.78309706     0.05360
C985        C  0.90916273  0.98071395  0.33577646    -0.20450
C986        C  0.89188213  0.99822861  0.30586778    -0.07010
C987        C  0.91367295  0.01512801  0.27827741     0.13850
C988        C  0.95219212  0.01403433  0.28128889    -0.20500
C989        C  0.96958960  0.99642840  0.31108792    -0.07020
C990        C  0.94778312  0.97980993  0.33890139     0.13840
C991        C  0.96494995  0.96216717  0.37241393    -0.23850
H992        H  0.89227092  0.96781799  0.35684014     0.15130
H993        H  0.96896305  0.02661246  0.25993686     0.15160
C994        C  0.89653854  0.03319180  0.24493282    -0.23800
H995        H  0.94373585  0.95271638  0.39239807     0.05370
H996        H  0.98302755  0.98237106  0.38656992     0.08600
H997        H  0.98135054  0.93773992  0.36436405     0.08600
H998        H  0.87992591  0.05740622  0.25329998     0.08580
H999        H  0.87864051  0.01311044  0.23038097     0.08580
H1000       H  0.91775740  0.04308948  0.22517123     0.05360
C1001       C  0.75306358  0.92317261  0.25610571    -0.20450
C1002       C  0.77487710  0.92706376  0.28791055    -0.07010
C1003       C  0.77523170  0.89870362  0.31465843     0.13850
C1004       C  0.75466223  0.86670873  0.30834190    -0.20500
C1005       C  0.73311765  0.86267464  0.27647759    -0.07020
C1006       C  0.73198844  0.89128866  0.25011250     0.13840
C1007       C  0.70963456  0.88782489  0.21530421    -0.23850
H1008       H  0.75258994  0.94524715  0.23587465     0.15130
H1009       H  0.75512695  0.84466146  0.32862178     0.15160
C1010       C  0.79591103  0.90252835  0.35051666    -0.23800
H1011       H  0.71292541  0.91236090  0.19717931     0.05370
H1012       H  0.67995618  0.88517690  0.22221402     0.08600
H1013       H  0.71863914  0.86313805  0.19966357     0.08600
H1014       H  0.78679264  0.92785387  0.36501762     0.08580
H1015       H  0.82597866  0.90397163  0.34540052     0.08580
H1016       H  0.79093701  0.87865502  0.36913790     0.05360
C1017       C  0.78289107  0.08725826  0.26528881    -0.20450
C1018       C  0.77113987  0.06340907  0.29341045    -0.07010
C1019       C  0.73827548  0.07139877  0.31290995     0.13850
C1020       C  0.71790229  0.10287084  0.30332939    -0.20500
C1021       C  0.73024660  0.12707178  0.27578617    -0.07020
C1022       C  0.76301829  0.11908435  0.25637089     0.13840
C1023       C  0.77654487  0.14341696  0.22543504    -0.23850
H1024       H  0.80755785  0.08060414  0.24980780     0.15130
H1025       H  0.69320286  0.10952378  0.31873584     0.15160
C1026       C  0.72468283  0.04840766  0.34484689    -0.23800
H1027       H  0.80133094  0.13175737  0.21180859     0.05370
H1028       H  0.78414745  0.17105585  0.23602570     0.08600
H1029       H  0.75455440  0.14620326  0.20433608     0.08600
H1030       H  0.74388556  0.02593898  0.35257173     0.08580
H1031       H  0.69753666  0.03614269  0.33784646     0.08580
H1032       H  0.72138470  0.06620990  0.36947210     0.05360
C1033       C  0.83697009  0.26014622  0.14498118    -0.20450
C1034       C  0.86053523  0.28828265  0.15709909    -0.07010
C1035       C  0.85145259  0.30802089  0.18954931     0.13850
C1036       C  0.81991767  0.29806544  0.20962282    -0.20500
C1037       C  0.79599249  0.27057481  0.19692575    -0.07020
C1038       C  0.80446641  0.25153552  0.16401108     0.13840
C1039       C  0.77966949  0.22172398  0.14904755    -0.23850
H1040       H  0.84412307  0.24470214  0.12047280     0.15130
H1041       H  0.81272797  0.31350066  0.23415141     0.15160
C1042       C  0.87308424  0.34094099  0.20278577    -0.23800
H1043       H  0.79181211  0.20816656  0.12447948     0.05370
H1044       H  0.75274372  0.23349857  0.14060817     0.08600
H1045       H  0.77520112  0.20029642  0.17039716     0.08600
H1046       H  0.89476261  0.34971204  0.18317720     0.08580
H1047       H  0.88597415  0.33452138  0.22980324     0.08580
H1048       H  0.85424030  0.36482603  0.20616505     0.05360
C1049       C  0.02133968  0.26152079  0.14477474    -0.20450
C1050       C  0.99754008  0.28888803  0.15807878    -0.07010
C1051       C  0.00613415  0.30675613  0.19171147     0.13850
C1052       C  0.03776206  0.29612969  0.21129357    -0.20500
C1053       C  0.06234401  0.26999417  0.19704281    -0.07020
C1054       C  0.05376928  0.25214623  0.16349074     0.13840
C1055       C  0.07789245  0.22215614  0.14790466    -0.23850
H1056       H  0.01428979  0.24703813  0.11966548     0.15130
H1057       H  0.04426160  0.30987323  0.23693099     0.15160
C1058       C  0.98386829  0.33834346  0.20689996    -0.23800
H1059       H  0.06541186  0.20928582  0.12312611     0.05370
H1060       H  0.08177527  0.20022109  0.16896427     0.08600
H1061       H  0.10501879  0.23348465  0.13948881     0.08600
H1062       H  0.97095524  0.32995740  0.23337446     0.08580
H1063       H  0.96214986  0.34794860  0.18775007     0.08580
H1064       H  0.00228112  0.36228961  0.21194267     0.05360
C1065       C  0.83894162  0.67830905  0.83985124    -0.20450
C1066       C  0.86417734  0.70752506  0.84082277    -0.07010
C1067       C  0.85631831  0.74052864  0.82131395     0.13850
C1068       C  0.82344216  0.74328916  0.80102488    -0.20500
C1069       C  0.79806911  0.71419404  0.80044833    -0.07020
C1070       C  0.80591123  0.68125170  0.81998434     0.13840
C1071       C  0.77981056  0.64886273  0.81936041    -0.23850
H1072       H  0.84523183  0.65303681  0.85462617     0.15130
H1073       H  0.81690981  0.76867666  0.78655927     0.15160
C1074       C  0.88165587  0.77346067  0.82315393    -0.23800
H1075       H  0.79111321  0.62478495  0.83462373     0.05370
H1076       H  0.77481669  0.64028783  0.79045350     0.08600
H1077       H  0.75324134  0.65641068  0.83242636     0.08600
H1078       H  0.90858731  0.76699413  0.81031635     0.08580
H1079       H  0.88599077  0.78144886  0.85234756     0.08580
H1080       H  0.87000604  0.79762980  0.80830671     0.05360
C1081       C  0.00585110  0.73848827  0.82116434    -0.20450
C1082       C  0.00067442  0.70576458  0.84148426    -0.07010
C1083       C  0.02742711  0.67757235  0.83949596     0.13850
C1084       C  0.05924805  0.68334879  0.81829451    -0.20500
C1085       C  0.06462473  0.71623507  0.79843455    -0.07020
C1086       C  0.03753465  0.74406408  0.79961405     0.13840
C1087       C  0.04257658  0.78002749  0.77928818    -0.23850
H1088       H  0.98502110  0.75987974  0.82240049     0.15130
H1089       H  0.08016802  0.66202546  0.81714344     0.15160
C1090       C  0.02209821  0.64103385  0.85868653    -0.23800
H1091       H  0.01915126  0.79913548  0.78405972     0.05370
H1092       H  0.04445103  0.77485094  0.74922159     0.08600
H1093       H  0.06820369  0.79382225  0.78876136     0.08600
H1094       H  0.99577657  0.62829762  0.84967334     0.08580
H1095       H  0.02164791  0.64501496  0.88891883     0.08580
H1096       H  0.04475688  0.62146759  0.85233707     0.05360
C1097       C  0.24385641  0.17207324  0.87179848    -0.20450
C1098       C  0.21121182  0.19244624  0.86771698    -0.07010
C1099       C  0.18474393  0.19203711  0.89614257     0.13850
C1100       C  0.19123473  0.17038302  0.92767122    -0.20500
C1101       C  0.22374067  0.14953189  0.93157808    -0.07020
C1102       C  0.25075051  0.15106361  0.90355996     0.13840
C1103       C  0.28741489  0.13188984  0.90748641    -0.23850
H1104       H  0.26425969  0.17285747  0.84996701     0.15130
H1105       H  0.17075817  0.16957475  0.94941442     0.15160
C1106       C  0.14930821  0.21342047  0.89279838    -0.23800
H1107       H  0.30616532  0.13852119  0.88418861     0.05370
H1108       H  0.28356642  0.10159391  0.90782947     0.08600
H1109       H  0.30110000  0.14074953  0.93335751     0.08600
H1110       H  0.13399168  0.20437633  0.86792136     0.08580
H1111       H  0.15537397  0.24335584  0.89055920     0.08580
H1112       H  0.13124432  0.20918319  0.91716087     0.05360
C1113       C  0.19625161  0.13767864  0.09112059    -0.20450
C1114       C  0.22551372  0.14868071  0.06835061    -0.07010
C1115       C  0.24696039  0.17975704  0.07828494     0.13850
C1116       C  0.23765705  0.19977502  0.11004263    -0.20500
C1117       C  0.20835535  0.18874239  0.13272469    -0.07020
C1118       C  0.18770260  0.15700143  0.12343822     0.13840
C1119       C  0.15618703  0.14379526  0.14712893    -0.23850
H1120       H  0.17981368  0.11395555  0.08336854     0.15130
H1121       H  0.25420282  0.22335571  0.11801277     0.15160
C1122       C  0.28074642  0.19078802  0.05666901    -0.23800
H1123       H  0.14184342  0.11977618  0.13472831     0.05370
H1124       H  0.13582432  0.16629026  0.15043210     0.08600
H1125       H  0.16643347  0.13515920  0.17463537     0.08600
H1126       H  0.27314576  0.19994024  0.02853310     0.08580
H1127       H  0.29993425  0.16701246  0.05485666     0.08580
H1128       H  0.29567886  0.21393982  0.06999016     0.05360
C1129       C  0.61564783  0.81271266  0.86948910    -0.20450
C1130       C  0.64922863  0.79386178  0.86583297    -0.07010
C1131       C  0.67543227  0.79526634  0.89440375     0.13850
C1132       C  0.66749197  0.81596862  0.92602820    -0.20500
C1133       C  0.63398589  0.83516086  0.92956174    -0.07020
C1134       C  0.60749825  0.83306389  0.90119520     0.13840
C1135       C  0.57027584  0.85116533  0.90471487    -0.23850
H1136       H  0.59566063  0.81142889  0.84730728     0.15130
H1137       H  0.68759188  0.81742213  0.94808506     0.15160
C1138       C  0.71206634  0.77605726  0.89100846    -0.23800
H1139       H  0.55237500  0.84510084  0.88065163     0.05370
H1140       H  0.57339635  0.88153112  0.90644434     0.08600
H1141       H  0.55614147  0.84083905  0.92985629     0.08600
H1142       H  0.72702385  0.78662427  0.86644145     0.08580
H1143       H  0.70773738  0.74589505  0.88810219     0.08580
H1144       H  0.72965416  0.78071195  0.91561133     0.05360
C1145       C  0.66638234  0.81783370  0.07031853    -0.20450
C1146       C  0.63108989  0.83289543  0.06536300    -0.07010
C1147       C  0.60396217  0.82775025  0.09271247     0.13850
C1148       C  0.61323586  0.80853248  0.12501603    -0.20500
C1149       C  0.64880113  0.79417555  0.13030332    -0.07020
C1150       C  0.67563502  0.79875057  0.10263725     0.13840
C1151       C  0.71455327  0.78588140  0.10822385    -0.23850
H1152       H  0.68710504  0.82201833  0.04917437     0.15130
H1153       H  0.59272028  0.80488438  0.14645737     0.15160
C1154       C  0.56521175  0.84174490  0.08755456    -0.23800
H1155       H  0.73209043  0.79159103  0.08376875     0.05370
H1156       H  0.71510800  0.75574665  0.11370622     0.08600
H1157       H  0.72626959  0.80100852  0.13192410     0.08600
H1158       H  0.55319196  0.82972190  0.06214556     0.08580
H1159       H  0.56522222  0.87225166  0.08521713     0.08580
H1160       H  0.54721969  0.83406107  0.11112985     0.05360
C1161       C  0.94484621  0.26702598  0.98079494    -0.20450
C1162       C  0.92829027  0.29526179  0.96013870    -0.07010
C1163       C  0.91247453  0.32565267  0.97874096     0.13850
C1164       C  0.91348816  0.32680490  0.01756403    -0.20500
C1165       C  0.93027526  0.29854237  0.03816426    -0.07020
C1166       C  0.94589937  0.26811837  0.01943320     0.13840
C1167       C  0.96256446  0.23596388  0.03998554    -0.23850
H1168       H  0.95677940  0.24370203  0.96647970     0.15130
H1169       H  0.90135793  0.34996836  0.03195394     0.15160
C1170       C  0.89559333  0.35737729  0.95779700    -0.23800
H1171       H  0.97090144  0.21347063  0.02103209     0.05370
H1172       H  0.94219377  0.22447350  0.05976881     0.08600
H1173       H  0.98759558  0.24483624  0.05501512     0.08600
H1174       H  0.87135689  0.34781043  0.94186786     0.08580
H1175       H  0.91626331  0.36937648  0.93863518     0.08580
H1176       H  0.88613941  0.37956594  0.97658910     0.05360
C1177       C  0.83775300  0.30806169  0.83846618    -0.20450
C1178       C  0.86288479  0.27875851  0.83893721    -0.07010
C1179       C  0.85511532  0.24646253  0.81841336     0.13850
C1180       C  0.82249092  0.24447955  0.79775094    -0.20500
C1181       C  0.79724131  0.27358738  0.79773635    -0.07020
C1182       C  0.80492544  0.30584482  0.81822539     0.13840
C1183       C  0.77883585  0.33822540  0.81834849    -0.23850
H1184       H  0.84391798  0.33279832  0.85401625     0.15130
H1185       H  0.81603670  0.21962029  0.78253820     0.15160
C1186       C  0.88024717  0.21342567  0.81929824    -0.23800
H1187       H  0.79009126  0.36179071  0.83428006     0.05370
H1188       H  0.75221118  0.33026688  0.83111998     0.08600
H1189       H  0.77396842  0.34774998  0.78965942     0.08600
H1190       H  0.88554099  0.20497412  0.84825640     0.08580
H1191       H  0.90654572  0.22011521  0.80540340     0.08580
H1192       H  0.86804415  0.18949219  0.80465441     0.05360
C1193       C  0.02465765  0.30950296  0.84432664    -0.20450
C1194       C  0.99965813  0.28009312  0.84298435    -0.07010
C1195       C  0.00823452  0.24864319  0.82153371     0.13850
C1196       C  0.04057949  0.24836957  0.80044774    -0.20500
C1197       C  0.06567153  0.27762747  0.80205441    -0.07020
C1198       C  0.05778844  0.30852539  0.82454108     0.13840
C1199       C  0.08327426  0.34118880  0.82804562    -0.23850
H1200       H  0.01814307  0.33358516  0.86074235     0.15130
H1201       H  0.04729906  0.22415705  0.78429609     0.15160
C1202       C  0.98516598  0.21406915  0.82182526    -0.23800
H1203       H  0.06860398  0.36662994  0.81929444     0.05370
H1204       H  0.10838831  0.33877855  0.81097402     0.08600
H1205       H  0.09189992  0.34423501  0.85723500     0.08600
H1206       H  0.97366999  0.20925704  0.79390376     0.08580
H1207       H  0.96236079  0.21505590  0.84205985     0.08580
H1208       H  0.00269403  0.19016385  0.82957153     0.05360
C1209       C  0.91427510  0.72082921  0.98062299    -0.20450
C1210       C  0.93096580  0.69200723  0.96103799    -0.07010
C1211       C  0.94615054  0.66191341  0.98085396     0.13850
C1212       C  0.94482737  0.66184397  0.01967009    -0.20500
C1213       C  0.92835512  0.69087634  0.03921074    -0.07020
C1214       C  0.91292175  0.72079203  0.01933149     0.13840
C1215       C  0.89635534  0.75356475  0.03872870    -0.23850
H1216       H  0.90272453  0.74389238  0.96543763     0.15130
H1217       H  0.95667178  0.63898215  0.03492553     0.15160
C1218       C  0.96284919  0.62939860  0.96125684    -0.23800
H1219       H  0.88794039  0.77544960  0.01895908     0.05370
H1220       H  0.91683584  0.76564280  0.05796114     0.08600
H1221       H  0.87141038  0.74519911  0.05426984     0.08600
H1222       H  0.98768081  0.63814339  0.94580094     0.08580
H1223       H  0.94244195  0.61740056  0.94189850     0.08580
H1224       H  0.97137695  0.60743138  0.98089082     0.05360
C1225       C  0.84690972  0.73590418  0.15807259    -0.20450
C1226       C  0.86347973  0.70108804  0.16057592    -0.07010
C1227       C  0.84904950  0.67440732  0.18511255     0.13850
C1228       C  0.81728735  0.68278115  0.20557870    -0.20500
C1229       C  0.80027300  0.71735398  0.20234629    -0.07020
C1230       C  0.81571216  0.74448320  0.17910172     0.13840
C1231       C  0.79956631  0.78262588  0.17711326    -0.23850
H1232       H  0.85883187  0.75660440  0.14000873     0.15130
H1233       H  0.80506770  0.66199074  0.22333573     0.15160
C1234       C  0.86657439  0.63694684  0.18896866    -0.23800
H1235       H  0.81452113  0.80047202  0.15715595     0.05370
H1236       H  0.80090550  0.79570648  0.20470234     0.08600
H1237       H  0.77044837  0.78087490  0.16852727     0.08600
H1238       H  0.89519606  0.63985976  0.19926886     0.08580
H1239       H  0.86702433  0.62298440  0.16179105     0.08580
H1240       H  0.85123333  0.61913713  0.20866508     0.05360
C1241       C  0.02125102  0.73181323  0.14733045    -0.20450
C1242       C  0.99967674  0.70119509  0.15721783    -0.07010
C1243       C  0.01107854  0.67830848  0.18679428     0.13850
C1244       C  0.04323087  0.68728101  0.20630085    -0.20500
C1245       C  0.06464787  0.71790715  0.19642000    -0.07020
C1246       C  0.05381731  0.74025400  0.16636576     0.13840
C1247       C  0.07623144  0.77332928  0.15475582    -0.23850
H1248       H  0.01233545  0.74940860  0.12481736     0.15130
H1249       H  0.05243424  0.66956924  0.22857864     0.15160
C1250       C  0.99052276  0.64352341  0.19683151    -0.23800
H1251       H  0.06301827  0.78856250  0.13166862     0.05370
H1252       H  0.10393661  0.76444361  0.14538672     0.08600
H1253       H  0.07921990  0.79255965  0.17832372     0.08600
H1254       H  0.98794072  0.62561399  0.17220677     0.08580
H1255       H  0.96274919  0.65016347  0.20752149     0.08580
H1256       H  0.00506473  0.62757594  0.21860545     0.05360
C1257       C  0.58868270  0.97262761  0.98361395    -0.20450
C1258       C  0.61826745  0.95312798  0.99937379    -0.07010
C1259       C  0.64829515  0.97290482  0.01437505     0.13850
C1260       C  0.64781909  0.01153055  0.01363353    -0.20500
C1261       C  0.61847480  0.03109742  0.99779103    -0.07020
C1262       C  0.58839662  0.01150641  0.98270712     0.13840
C1263       C  0.55582182  0.03148404  0.96645558    -0.23850
H1264       H  0.56580272  0.95734507  0.97199643     0.15130
H1265       H  0.67100642  0.02671439  0.02480617     0.15160
C1266       C  0.68172512  0.95349224  0.02975076    -0.23800
H1267       H  0.53416950  0.01196698  0.95711523     0.05370
H1268       H  0.56457817  0.04813391  0.94230616     0.08600
H1269       H  0.54354003  0.04996073  0.98747369     0.08600
H1270       H  0.69356023  0.93490529  0.00857317     0.08580
H1271       H  0.67419589  0.93720215  0.05453009     0.08580
H1272       H  0.70351143  0.97332571  0.03806424     0.05360
C1273       C  0.67892299  0.16069692  0.91878847    -0.20450
C1274       C  0.64356096  0.14825966  0.92853716    -0.07010
C1275       C  0.61280588  0.15905426  0.90725959     0.13850
C1276       C  0.61831305  0.18104618  0.87592716    -0.20500
C1277       C  0.65367097  0.19296692  0.86590529    -0.07020
C1278       C  0.68434927  0.18290646  0.88749259     0.13840
C1279       C  0.72268789  0.19497541  0.87703947    -0.23850
H1280       H  0.70229084  0.15290742  0.93571927     0.15130
H1281       H  0.59497148  0.18873957  0.85889003     0.15160
C1282       C  0.57416932  0.14816031  0.91802794    -0.23800
H1283       H  0.74362406  0.18435352  0.89671731     0.05370
H1284       H  0.72424533  0.22556241  0.87686734     0.08600
H1285       H  0.72964034  0.18456542  0.84917404     0.08600
H1286       H  0.56802238  0.15832977  0.94619573     0.08580
H1287       H  0.57130893  0.11770070  0.91749242     0.08580
H1288       H  0.55334629  0.15997238  0.89890758     0.05360
C1289       C  0.66534964  0.15331150  0.12921697    -0.20450
C1290       C  0.65709878  0.19121773  0.12982156    -0.07010
C1291       C  0.64597658  0.20846411  0.09664545     0.13850
C1292       C  0.63784495  0.18658416  0.06594488    -0.20500
C1293       C  0.64504414  0.14838729  0.06545756    -0.07020
C1294       C  0.66100235  0.13202919  0.09728671     0.13840
C1295       C  0.67560257  0.09304736  0.09796202    -0.23850
H1296       H  0.67586914  0.14013543  0.15394092     0.15130
H1297       H  0.62616560  0.19983281  0.04184489     0.15160
C1298       C  0.64328633  0.24970098  0.09265141    -0.23800
H1299       H  0.69592498  0.08918139  0.12054720     0.05370
H1300       H  0.69006675  0.08658937  0.07181027     0.08600
H1301       H  0.65297315  0.07316380  0.10310423     0.08600
H1302       H  0.67057934  0.26239079  0.09817931     0.08580
H1303       H  0.62283931  0.26060269  0.11209686     0.08580
H1304       H  0.63472162  0.25814440  0.06447074     0.05360
C1305       C  0.27557991  0.97259000  0.98659169    -0.20450
C1306       C  0.24540653  0.95177740  0.99914579    -0.07010
C1307       C  0.21351120  0.97034852  0.01176403     0.13850
C1308       C  0.21276411  0.00909886  0.01201258    -0.20500
C1309       C  0.24286303  0.02992618  0.99954862    -0.07020
C1310       C  0.27472347  0.01148384  0.98675481     0.13840
C1311       C  0.30804507  0.03278646  0.97405547    -0.23850
H1312       H  0.29993951  0.95833290  0.97686619     0.15130
H1313       H  0.18829192  0.02333350  0.02151856     0.15160
C1314       C  0.17971103  0.94940990  0.02394809    -0.23800
H1315       H  0.33097067  0.01416536  0.96606721     0.05370
H1316       H  0.31792620  0.05090055  0.99660737     0.08600
H1317       H  0.30090821  0.04995317  0.94974866     0.08600
H1318       H  0.18599426  0.93271402  0.04879799     0.08580
H1319       H  0.17026136  0.93099078  0.00145689     0.08580
H1320       H  0.15666244  0.96825083  0.03102193     0.05360
C1321       C  0.20248600  0.84592616  0.90881279    -0.20450
C1322       C  0.23206005  0.83304471  0.92992303    -0.07010
C1323       C  0.24976590  0.79973947  0.91964531     0.13850
C1324       C  0.23725843  0.78049806  0.88850890    -0.20500
C1325       C  0.20932536  0.79485603  0.86596610    -0.07020
C1326       C  0.19128189  0.82758464  0.87690546     0.13840
C1327       C  0.16073832  0.84391216  0.85458098    -0.23850
H1328       H  0.18811379  0.87071766  0.91727578     0.15130
H1329       H  0.25082833  0.75513741  0.88073848     0.15160
C1330       C  0.28289711  0.78454044  0.93964307    -0.23800
H1331       H  0.14755246  0.86778889  0.86843484     0.05370
H1332       H  0.13923581  0.82286788  0.84892173     0.08600
H1333       H  0.17321260  0.85397101  0.82883191     0.08600
H1334       H  0.27584468  0.75749441  0.95225199     0.08580
H1335       H  0.29328789  0.80316286  0.96141635     0.08580
H1336       H  0.30579953  0.78053966  0.91974714     0.05360
C1337       C  0.20441060  0.84559731  0.08738643    -0.20450
C1338       C  0.23323954  0.83197388  0.06582072    -0.07010
C1339       C  0.25042860  0.79834239  0.07602585     0.13850
C1340       C  0.23816945  0.77953809  0.10766212    -0.20500
C1341       C  0.21106639  0.79470812  0.13064217    -0.07020
C1342       C  0.19360374  0.82783523  0.11979158     0.13840
C1343       C  0.16419335  0.84531743  0.14269390    -0.23850
H1344       H  0.19040605  0.87065172  0.07897686     0.15130
H1345       H  0.25127463  0.75385550  0.11539360     0.15160
C1346       C  0.28273795  0.78235808  0.05542832    -0.23800
H1347       H  0.15115689  0.86928422  0.12868583     0.05370
H1348       H  0.17762963  0.85554016  0.16788723     0.08600
H1349       H  0.14234342  0.82496337  0.14944842     0.08600
H1350       H  0.29288903  0.80059618  0.03309594     0.08580
H1351       H  0.27485482  0.75535785  0.04341348     0.08580
H1352       H  0.30606228  0.77807817  0.07479640     0.05360
loop_ 
_geom_bond_atom_site_label_1 
_geom_bond_atom_site_label_2 
_geom_bond_distance 
_geom_bond_site_symmetry_2 
_ccdc_geom_bond_type 
C1            C2   1.397       .  A
C1            C6   1.411       .  A
C1         C1322   1.481       .  S
C2            C3   1.395   1_556  A
C2            H7   1.085       .  S
C3            C4   1.407       .  A
C3         C1338   1.479       .  S
C4            C5   1.404   1_554  A
C4            H8   1.084       .  S
C5            C6   1.406       .  A
C5         C1306   1.489       .  S
C6            H9   1.084       .  S
C10          C11   1.408       .  A
C10          C15   1.405   1_554  A
C10        C1293   1.498       .  S
C11          C12   1.405   1_554  A
C11          H16   1.079       .  S
C12          C13   1.403       .  A
C12        C1261   1.483       .  S
C13          C14   1.402       .  A
C13          H17   1.083       .  S
C14          C15   1.396       .  A
C14        C1274   1.475       .  S
C15          H18   1.083       .  S
C19          C20   1.399       .  A
C19          C24   1.408       .  A
C19        C1242   1.482       .  S
C20          C21   1.396       .  A
C20          H25   1.084       .  S
C21          C22   1.404       .  A
C21        C1226   1.475       .  S
C22          C23   1.407       .  A
C22          H26   1.083       .  S
C23          C24   1.408       .  A
C23        C1213   1.490       .  S
C24          H27   1.084       .  S
C28          C29   1.398       .  A
C28          C33   1.408       .  A
C28        C1178   1.481       .  S
C29          C30   1.398       .  A
C29          H34   1.084       .  S
C30          C31   1.404       .  A
C30        C1194   1.479       .  S
C31          C32   1.407       .  A
C31          H35   1.084       .  S
C32          C33   1.408       .  A
C32        C1162   1.488       .  S
C33          H36   1.083       .  S
C37          C38   1.406       .  A
C37          C42   1.397       .  A
C37        C1133   1.477       .  S
C38          C39   1.405       .  A
C38          H43   1.084       .  S
C39          C40   1.405   1_556  A
C39        C1258   1.484       .  S
C40          C41   1.403       .  A
C40          H44   1.083       .  S
C41          C42   1.396   1_554  A
C41        C1146   1.475       .  S
C42          H45   1.085       .  S
C46          C47   1.407       .  A
C46          C51   1.399       .  A
C46        C1101   1.484       .  S
C47          C48   1.406       .  A
C47          H52   1.083       .  S
C48          C49   1.407   1_556  A
C48        C1309   1.487       .  S
C49          C50   1.407       .  A
C49          H53   1.084       .  S
C50          C51   1.399   1_554  A
C50        C1114   1.483       .  S
C51          H54   1.084       .  S
C55          C56   1.408       .  A
C55          C60   1.398       .  A
C55        C1082   1.482   1_655  S
C56          C57   1.409       .  A
C56          H61   1.083       .  S
C57          C58   1.408       .  A
C57        C1210   1.491       .  S
C58          C59   1.406       .  A
C58          H62   1.084       .  S
C59          C60   1.397       .  A
C59        C1066   1.481       .  S
C60          H63   1.084       .  S
C64          C65   1.408       .  A
C64          C69   1.400       .  A
C64        C1034   1.483       .  S
C65          C66   1.405       .  A
C65          H70   1.084       .  S
C66          C67   1.405       .  A
C66        C1165   1.489       .  S
C67          C68   1.406       .  A
C67          H71   1.084       .  S
C68          C69   1.399       .  A
C68        C1050   1.484       .  S
C69          H72   1.084       .  S
C73          C74   1.397   1_545  A
C73          C78   1.404       .  A
C73        C1018   1.477       .  S
C74          C75   1.397       .  A
C74          H79   1.084       .  S
C75          C76   1.404       .  A
C75        C1002   1.477       .  S
C76          C77   1.403       .  A
C76          H80   1.083       .  S
C77          C78   1.403   1_565  A
C77         C986   1.482       .  S
C78          H81   1.084       .  S
C82          C83   1.399   1_545  A
C82          C87   1.409       .  A
C82         C970   1.489       .  S
C83          C84   1.400       .  A
C83          H88   1.083       .  S
C84          C85   1.404       .  A
C84         C954   1.479       .  S
C85          C86   1.405       .  A
C85          H89   1.084       .  S
C86          C87   1.408   1_565  A
C86         C941   1.488   1_455  S
C87          H90   1.083       .  S
C91          C92   1.405       .  A
C91          C96   1.397       .  A
C91         C906   1.479       .  S
C92          C93   1.407       .  A
C92          H97   1.082       .  S
C93          C94   1.408   1_565  A
C93         C938   1.491       .  S
C94          C95   1.407       .  A
C94          H98   1.084       .  S
C95          C96   1.397   1_545  A
C95         C922   1.479       .  S
C96          H99   1.084       .  S
C100        C101   1.401       .  A
C100        C105   1.396   1_545  A
C100        C893   1.474       .  S
C101        C102   1.405   1_545  A
C101        H106   1.084       .  S
C102        C103   1.406       .  A
C102        C989   1.485   1_455  S
C103        C104   1.405       .  A
C103        H107   1.083       .  S
C104        C105   1.401       .  A
C104        C874   1.480       .  S
C105        H108   1.085       .  S
C109        C110   1.395       .  A
C109        C114   1.400       .  A
C109        C858   1.471       .  S
C110        C111   1.400       .  A
C110        H115   1.085       .  S
C111        C112   1.408       .  A
C111        C845   1.483       .  S
C112        C113   1.406       .  A
C112        H116   1.083       .  S
C113        C114   1.404       .  A
C113        C826   1.484       .  S
C114        H117   1.084       .  S
Fe118       O134   2.040       .  S
Fe118       O124   2.095       .  S
Fe118       O131   2.098       .  S
Fe118       O123   2.035       .  S
Fe118       O129   1.953       .  S
Fe119       O122   2.029       .  S
Fe119       O126   2.093       .  S
Fe119       O130   2.038       .  S
Fe119       O135   2.099       .  S
Fe119       O129   1.953       .  S
Fe120       O138   2.103       .  S
Fe120       O125   2.026       .  S
Fe120       O132   2.028       .  S
Fe120       O121   2.103       .  S
Fe120       O129   1.952       .  S
O121        C128   1.277       .  A
O122        C136   1.262       .  A
O123        C128   1.264       .  A
O124        C127   1.273       .  A
O125        C137   1.263       .  A
O126        C139   1.273       .  A
C127       C1021   1.469       .  S
C127        O132   1.262       .  A
C128        C810   1.475       .  S
O130        C133   1.265       .  A
O131        C133   1.275       .  A
C133        C861   1.471       .  S
O134        C139   1.266       .  A
O135        C137   1.276       .  A
C136       C1037   1.474       .  S
C136        O138   1.276       .  A
C137        C794   1.476       .  S
C139       C1290   1.489       .  S
C140        C141   1.406       .  A
C140        C145   1.399       .  A
C140        C765   1.481       .  S
C141        C142   1.408       .  A
C141        H146   1.083       .  S
C142        C143   1.408       .  A
C142        C746   1.487       .  S
C143        C144   1.404       .  A
C143        H147   1.084       .  S
C144        C145   1.395       .  A
C144        C778   1.476       .  S
C145        H148   1.085       .  S
C149        C150   1.400       .  A
C149        C154   1.407       .  A
C149        C730   1.485       .  S
C150        C151   1.399       .  A
C150        H155   1.084       .  S
C151        C152   1.406       .  A
C151        C813   1.480       .  S
C152        C153   1.407       .  A
C152        H156   1.083       .  S
C153        C154   1.407       .  A
C153        C717   1.489       .  S
C154        H157   1.084       .  S
Fe158       O174   2.108       .  S
Fe158       O164   2.035       .  S
Fe158       O171   2.033       .  S
Fe158       O163   2.103       .  S
Fe158       O169   1.948       .  S
Fe159       O162   2.100       .  S
Fe159       O166   2.031       .  S
Fe159       O170   2.107       .  S
Fe159       O175   2.030       .  S
Fe159       O169   1.949       .  S
Fe160       O178   2.030       .  S
Fe160       O165   2.098       .  S
Fe160       O172   2.101       .  S
Fe160       O161   2.024       .  S
Fe160       O169   1.948       .  S
O161        C168   1.260       .  A
O162        C176   1.275       .  A
O163        C168   1.275       .  A
O164        C167   1.265       .  A
O165        C177   1.276       .  A
O166        C179   1.263       .  A
C167        C698   1.473       .  S
C167        O172   1.277       .  A
C168       C1181   1.470       .  S
O170        C173   1.276       .  A
O171        C173   1.263       .  A
C173        C925   1.471       .  S
O174        C179   1.277       .  A
O175        C177   1.264       .  A
C176        C781   1.469       .  S
C176        O178   1.262       .  A
C177       C1277   1.465       .  S
C179        C733   1.478       .  S
C180        C181   1.398       .  A
C180        C185   1.408       .  A
C180        C797   1.484       .  S
C181        C182   1.396       .  A
C181        H186   1.083       .  S
C182        C183   1.406       .  A
C182        C682   1.482       .  S
C183        C184   1.407       .  A
C183        H187   1.084       .  S
C184        C185   1.407       .  A
C184        C666   1.489       .  S
C185        H188   1.083       .  S
C189        C190   1.407       .  A
C189        C194   1.402       .  A
C189        C634   1.487       .  S
C190        C191   1.405       .  A
C190        H195   1.082       .  S
C191        C192   1.404       .  A
C191        C829   1.485       .  S
C192        C193   1.404       .  A
C192        H196   1.084       .  S
C193        C194   1.400       .  A
C193        C650   1.484       .  S
C194        H197   1.084       .  S
Fe198       O214   2.090       .  S
Fe198       O204   2.024       .  S
Fe198       O211   2.027       .  S
Fe198       O203   2.097       .  S
Fe198       O209   1.957       .  S
Fe199       O202   2.090       .  S
Fe199       O206   2.032       .  S
Fe199       O210   2.093       .  S
Fe199       O215   2.033       .  S
Fe199       O209   1.954       .  S
Fe200       O218   2.042       .  S
Fe200       O205   2.095       .  S
Fe200       O212   2.103       .  S
Fe200       O201   2.041       .  S
Fe200       O209   1.954       .  S
O201        C208   1.265       .  A
O202        C216   1.275       .  A
O203        C208   1.273       .  A
O204        C207   1.261       .  A
O205        C217   1.273       .  A
O206        C219   1.261       .  A
C207        C685   1.473       .  S
C207        O212   1.276       .  A
C208       C1229   1.469       .  S
O210        C213   1.276       .  A
O211        C213   1.265       .  A
C213       C1005   1.469       .  S
O214        C219   1.272       .  A
O215        C217   1.262       .  A
C216        C653   1.475       .  S
C216        O218   1.268       .  A
C217       C1149   1.471       .  S
C219        C618   1.473       .  S
C220        C221   1.400       .  A
C220        C225   1.408       .  A
C220        C602   1.482       .  S
C221        C222   1.398       .  A
C221        H226   1.084       .  S
C222        C223   1.404       .  A
C222        C621   1.480       .  S
C223        C224   1.405       .  A
C223        H227   1.084       .  S
C224        C225   1.406       .  A
C224        C586   1.487       .  S
C225        H228   1.083       .  S
C229        C230   1.407       .  A
C229        C234   1.399       .  A
C229        C701   1.482       .  S
C230        C231   1.406       .  A
C230        H235   1.084       .  S
C231        C232   1.406       .  A
C231        C669   1.488       .  S
C232        C233   1.406       .  A
C232        H236   1.083       .  S
C233        C234   1.397       .  A
C233        C573   1.480       .  S
C234        H237   1.084       .  S
C238        C239   1.409       .  A
C238        C243   1.398       .  A
C238        C557   1.484       .  S
C239        C240   1.410       .  A
C239        H244   1.083       .  S
C240        C241   1.407       .  A
C240        C749   1.492       .  S
C241        C242   1.404       .  A
C241        H245   1.084       .  S
C242        C243   1.396       .  A
C242        C541   1.473       .  S
C243        H246   1.085       .  S
Fe247       O263   2.036       .  S
Fe247       O253   2.101       .  S
Fe247       O260   2.106       .  S
Fe247       O252   2.034       .  S
Fe247       O258   1.951       .  S
Fe248       O251   2.038       .  S
Fe248       O255   2.096       .  S
Fe248       O259   2.033       .  S
Fe248       O264   2.101       .  S
Fe248       O258   1.953       .  S
Fe249       O267   2.093       .  S
Fe249       O254   2.026       .  S
Fe249       O261   2.030       .  S
Fe249       O250   2.096       .  S
Fe249       O258   1.950       .  S
O250        C257   1.275       .  A
O251        C265   1.263       .  A
O252        C257   1.264       .  A
O253        C256   1.276       .  A
O254        C266   1.263       .  A
O255        C268   1.274       .  A
C256        C605   1.473       .  S
C256        O261   1.262       .  A
C257        C909   1.471       .  S
O259        C262   1.264       .  A
O260        C262   1.277       .  A
C262       C1069   1.474       .  S
O263        C268   1.263       .  A
O264        C266   1.276       .  A
C265        C538   1.466       .  S
C265        O267   1.273       .  A
C266       C1130   1.468       .  S
C268        C570   1.471       .  S
C269        C270   1.402       .  A
C269        C274   1.396       .  A
C269        C522   1.472       .  S
C270        C271   1.405       .  A
C270        H275   1.084       .  S
C271        C272   1.406       .  A
C271        C589   1.485       .  S
C272        C273   1.406       .  A
C272        H276   1.084       .  S
C273        C274   1.398       .  A
C273        C506   1.481       .  S
C274        H277   1.084       .  S
C278        C279   1.407       .  A
C278        C283   1.401       .  A
C278        C474   1.487       .  S
C279        C280   1.405       .  A
C279        H284   1.082       .  S
C280        C281   1.407       .  A
C280        C458   1.486       .  S
C281        C282   1.407       .  A
C281        H285   1.082       .  S
C282        C283   1.400       .  A
C282        C490   1.487       .  S
C283        H286   1.084       .  S
Fe287       O303   2.100       .  S
Fe287       O293   2.045       .  S
Fe287       O300   2.040       .  S
Fe287       O292   2.108       .  S
Fe287       O298   1.954       .  S
Fe288       O291   2.103       .  S
Fe288       O295   2.043       .  S
Fe288       O299   2.090       .  S
Fe288       O304   2.037       .  S
Fe288       O298   1.956       .  S
Fe289       O307   2.035       .  S
Fe289       O294   2.092       .  S
Fe289       O301   2.105       .  S
Fe289       O290   2.035       .  S
Fe289       O298   1.961       .  S
O290        C297   1.264       .  A
O291        C305   1.279       .  A
O292        C297   1.277       .  A
O293        C296   1.266       .  A
O294        C306   1.271       .  A
O295        C308   1.264       .  A
C296       C1325   1.484       .  S
C296        O301   1.275       .  A
C297        C554   1.477       .  S
O299        C302   1.275       .  A
O300        C302   1.266       .  A
C302        C525   1.466       .  S
O303        C308   1.275       .  A
O304        C306   1.261       .  A
C305       C1085   1.474       .  S
C305        O307   1.267       .  A
C306        C477   1.477       .  S
C308        C957   1.483       .  S
C309        C310   1.409       .  A
C309        C314   1.397       .  A
C309        C429   1.482       .  S
C310        C311   1.406       .  A
C310        H315   1.084       .  S
C311        C312   1.405       .  A
C311        C714   1.489       .  S
C312        C313   1.406       .  A
C312        H316   1.084       .  S
C313        C314   1.398       .  A
C313        C445   1.475       .  S
C314        H317   1.084       .  S
Fe318       O334   2.034       .  S
Fe318       O324   2.103       .  S
Fe318       O331   2.097       .  S
Fe318       O323   2.029       .  S
Fe318       O329   1.953       .  S
Fe319       O322   2.034       .  S
Fe319       O326   2.110       .  S
Fe319       O330   2.028       .  S
Fe319       O335   2.097       .  S
Fe319       O329   1.955       .  S
Fe320       O338   2.113       .  S
Fe320       O325   2.038       .  S
Fe320       O332   2.045       .  S
Fe320       O321   2.119       .  S
Fe320       O329   1.948       .  S
O321        C328   1.280       .  A
O322        C336   1.264       .  A
O323        C328   1.263       .  A
O324        C327   1.274       .  A
O325        C337   1.266       .  A
O326        C339   1.279       .  A
C327        C426   1.484       .  S
C327        O332   1.266       .  A
C328        C973   1.483       .  S
O330        C333   1.260       .  A
O331        C333   1.273       .  A
C333       C1197   1.470       .  S
O334        C339   1.266       .  A
O335        C337   1.276       .  A
C336        C762   1.483       .  S
C336        O338   1.279       .  A
C337       C1098   1.474       .  S
C339        C493   1.477       .  S
C340        C341   1.405       .  A
C340        C345   1.399       .  A
C340        C394   1.480       .  S
C341        C342   1.404       .  A
C341        H346   1.084       .  S
C342        C343   1.405       .  A
C342        C461   1.483       .  S
C343        C344   1.407       .  A
C343        H347   1.082       .  S
C344        C345   1.400       .  A
C344        C410   1.486       .  S
C345        H348   1.084       .  S
Fe349       O365   2.042       .  S
Fe349       O355   2.105       .  S
Fe349       O362   2.106       .  S
Fe349       O354   2.036       .  S
Fe349       O360   1.945       .  S
Fe350       O353   2.039       .  S
Fe350       O357   2.103       .  S
Fe350       O361   2.037       .  S
Fe350       O366   2.095       .  S
Fe350       O360   1.949       .  S
Fe351       O369   2.103       .  S
Fe351       O356   2.034       .  S
Fe351       O363   2.037       .  S
Fe351       O352   2.098       .  S
Fe351       O360   1.950       .  S
O352        C359   1.276       .  A
O353        C367   1.267       .  A
O354        C359   1.265       .  A
O355        C358   1.276       .  A
O356        C368   1.261       .  A
O357        C370   1.275       .  A
C358        C877   1.481       .  S
C358        O363   1.264       .  A
C359        C509   1.471       .  S
O361        C364   1.265       .  A
O362        C364   1.276       .  A
C364        C637   1.478       .  S
O365        C370   1.266       .  A
O366        C368   1.273       .  A
C367       C1245   1.471       .  S
C367        O369   1.278       .  A
C368        C397   1.472       .  S
C370       C1341   1.482       .  S
Fe371       O387   2.097       .  S
Fe371       O377   2.036       .  S
Fe371       O384   2.030       .  S
Fe371       O376   2.099       .  S
Fe371       O382   1.944       .  S
Fe372       O375   2.105       .  S
Fe372       O379   2.039       .  S
Fe372       O383   2.099       .  S
Fe372       O388   2.034       .  S
Fe372       O382   1.945       .  S
Fe373       O391   2.032       .  S
Fe373       O378   2.109       .  S
Fe373       O385   2.104       .  S
Fe373       O374   2.032       .  S
Fe373       O382   1.947       .  S
O374        C381   1.265       .  A
O375        C389   1.276       .  A
O376        C381   1.276       .  A
O377        C380   1.263       .  A
O378        C390   1.277       .  A
O379        C392   1.265       .  A
C380       C1117   1.475       .  S
C380        O385   1.276       .  A
C381        C842   1.474       .  S
O383        C386   1.275       .  A
O384        C386   1.263       .  A
C386        C442   1.469       .  S
O387        C392   1.275       .  A
O388        C390   1.264       .  A
C389       C1053   1.478       .  S
C389        O391   1.264       .  A
C390        C413   1.479       .  S
C392        C890   1.467       .  S
C393        C394   1.400       .  A
C393        C398   1.402       .  A
C393        H400   1.084       .  S
C394        C395   1.418       .  A
C395        C396   1.404       .  A
C395        C402   1.509       .  S
C396        C397   1.399       .  A
C396        H401   1.084       .  S
C397        C398   1.415       .  A
C398        C399   1.508       .  S
C399        H403   1.111       .  S
C399        H404   1.109       .  S
C399        H405   1.109       .  S
C402        H406   1.108       .  S
C402        H407   1.110       .  S
C402        H408   1.111       .  S
C409        C410   1.407       .  A
C409        C414   1.406       .  A
C409        H416   1.084       .  S
C410        C411   1.416       .  A
C411        C412   1.402       .  A
C411        C418   1.509       .  S
C412        C413   1.403       .  A
C412        H417   1.085       .  S
C413        C414   1.412       .  A
C414        C415   1.505       .  S
C415        H419   1.111       .  S
C415        H420   1.107       .  S
C415        H421   1.110       .  S
C418        H422   1.107       .  S
C418        H423   1.110       .  S
C418        H424   1.111       .  S
C425        C426   1.404       .  A
C425        C430   1.409       .  A
C425        H432   1.085       .  S
C426        C427   1.412       .  A
C427        C428   1.394       .  A
C427        C434   1.493       .  S
C428        C429   1.397       .  A
C428        H433   1.084       .  S
C429        C430   1.419       .  A
C430        C431   1.507       .  S
C431        H435   1.111       .  S
C431        H436   1.107       .  S
C431        H437   1.110       .  S
C434        H438   1.101       .  S
C434        H439   1.111       .  S
C434        H440   1.111       .  S
C441        C442   1.400       .  A
C441        C446   1.404       .  A
C441        H448   1.084       .  S
C442        C443   1.418       .  A
C443        C444   1.398       .  A
C443        C450   1.509       .  S
C444        C445   1.398       .  A
C444        H449   1.085       .  S
C445        C446   1.416       .  A
C446        C447   1.508       .  S
C447        H451   1.111       .  S
C447        H452   1.110       .  S
C447        H453   1.108       .  S
C450        H454   1.106       .  S
C450        H455   1.110       .  S
C450        H456   1.110       .  S
C457        C458   1.406       .  A
C457        C462   1.411       .  A
C457        H464   1.084       .  S
C458        C459   1.414       .  A
C459        C460   1.402       .  A
C459        C466   1.506       .  S
C460        C461   1.400       .  A
C460        H465   1.085       .  S
C461        C462   1.413       .  A
C462        C463   1.505       .  S
C463        H467   1.111       .  S
C463        H468   1.110       .  S
C463        H469   1.110       .  S
C466        H470   1.105       .  S
C466        H471   1.111       .  S
C466        H472   1.111       .  S
C473        C474   1.408       .  A
C473        C478   1.405       .  A
C473        H480   1.084       .  S
C474        C475   1.416       .  A
C475        C476   1.403       .  A
C475        C482   1.509       .  S
C476        C477   1.404       .  A
C476        H481   1.085       .  S
C477        C478   1.411       .  A
C478        C479   1.508       .  S
C479        H483   1.111       .  S
C479        H484   1.111       .  S
C479        H485   1.110       .  S
C482        H486   1.107       .  S
C482        H487   1.110       .  S
C482        H488   1.111       .  S
C489        C490   1.407       .  A
C489        C494   1.404       .  A
C489        H496   1.084       .  S
C490        C491   1.416       .  A
C491        C492   1.403       .  A
C491        C498   1.506       .  S
C492        C493   1.403       .  A
C492        H497   1.085       .  S
C493        C494   1.411       .  A
C494        C495   1.505       .  S
C495        H499   1.111       .  S
C495        H500   1.109       .  S
C495        H501   1.111       .  S
C498        H502   1.110       .  S
C498        H503   1.107       .  S
C498        H504   1.111       .  S
C505        C506   1.403       .  A
C505        C510   1.401       .  A
C505        H512   1.084       .  S
C506        C507   1.416       .  A
C507        C508   1.404       .  A
C507        C514   1.508       .  S
C508        C509   1.401       .  A
C508        H513   1.084       .  S
C509        C510   1.413       .  A
C510        C511   1.509       .  S
C511        H515   1.111       .  S
C511        H516   1.109       .  S
C511        H517   1.110       .  S
C514        H518   1.110       .  S
C514        H519   1.107       .  S
C514        H520   1.111       .  S
C521        C522   1.400       .  A
C521        C526   1.402       .  A
C521        H528   1.084       .  S
C522        C523   1.412       .  A
C523        C524   1.403       .  A
C523        C530   1.506       .  S
C524        C525   1.400       .  A
C524        H529   1.084       .  S
C525        C526   1.412       .  A
C526        C527   1.508       .  S
C527        H531   1.111       .  S
C527        H532   1.110       .  S
C527        H533   1.111       .  S
C530        H534   1.110       .  S
C530        H535   1.110       .  S
C530        H536   1.111       .  S
C537        C538   1.401       .  A
C537        C542   1.402       .  A
C537        H544   1.085       .  S
C538        C539   1.411       .  A
C539        C540   1.403       .  A
C539        C546   1.507       .  S
C540        C541   1.403       .  A
C540        H545   1.084       .  S
C541        C542   1.412       .  A
C542        C543   1.507       .  S
C543        H547   1.111       .  S
C543        H548   1.111       .  S
C543        H549   1.110       .  S
C546        H550   1.110       .  S
C546        H551   1.111       .  S
C546        H552   1.111       .  S
C553        C554   1.403       .  A
C553        C558   1.401       .  A
C553        H560   1.085       .  S
C554        C555   1.412       .  A
C555        C556   1.405       .  A
C555        C562   1.504       .  S
C556        C557   1.406       .  A
C556        H561   1.084       .  S
C557        C558   1.415       .  A
C558        C559   1.507       .  S
C559        H563   1.111       .  S
C559        H564   1.110       .  S
C559        H565   1.106       .  S
C562        H566   1.106       .  S
C562        H567   1.110       .  S
C562        H568   1.111       .  S
C569        C570   1.400       .  A
C569        C574   1.404       .  A
C569        H576   1.084       .  S
C570        C571   1.413       .  A
C571        C572   1.401       .  A
C571        C578   1.506       .  S
C572        C573   1.402       .  A
C572        H577   1.084       .  S
C573        C574   1.416       .  A
C574        C575   1.507       .  S
C575        H579   1.111       .  S
C575        H580   1.110       .  S
C575        H581   1.107       .  S
C578        H582   1.109       .  S
C578        H583   1.111       .  S
C578        H584   1.111       .  S
C585        C586   1.403       .  A
C585        C590   1.403       .  A
C585        H592   1.084       .  S
C586        C587   1.416       .  A
C587        C588   1.409       .  A
C587        C594   1.507       .  S
C588        C589   1.405       .  A
C588        H593   1.084       .  S
C589        C590   1.414       .  A
C590        C591   1.508       .  S
C591        H595   1.111       .  S
C591        H596   1.108       .  S
C591        H597   1.110       .  S
C594        H598   1.110       .  S
C594        H599   1.108       .  S
C594        H600   1.111       .  S
C601        C602   1.403       .  A
C601        C606   1.401       .  A
C601        H608   1.084       .  S
C602        C603   1.418       .  A
C603        C604   1.403       .  A
C603        C610   1.508       .  S
C604        C605   1.401       .  A
C604        H609   1.085       .  S
C605        C606   1.415       .  A
C606        C607   1.509       .  S
C607        H611   1.111       .  S
C607        H612   1.109       .  S
C607        H613   1.107       .  S
C610        H614   1.107       .  S
C610        H615   1.110       .  S
C610        H616   1.111       .  S
C617        C618   1.400       .  A
C617        C622   1.402       .  A
C617        H624   1.085       .  S
C618        C619   1.416       .  A
C619        C620   1.401       .  A
C619        C626   1.509       .  S
C620        C621   1.401       .  A
C620        H625   1.084       .  S
C621        C622   1.419       .  A
C622        C623   1.509       .  S
C623        H627   1.111       .  S
C623        H628   1.107       .  S
C623        H629   1.110       .  S
C626        H630   1.109       .  S
C626        H631   1.111       .  S
C626        H632   1.111       .  S
C633        C634   1.407       .  A
C633        C638   1.404       .  A
C633        H640   1.084       .  S
C634        C635   1.417       .  A
C635        C636   1.403       .  A
C635        C642   1.509       .  S
C636        C637   1.403       .  A
C636        H641   1.085       .  S
C637        C638   1.412       .  A
C638        C639   1.505       .  S
C639        H643   1.111       .  S
C639        H644   1.110       .  S
C639        H645   1.106       .  S
C642        H646   1.110       .  S
C642        H647   1.107       .  S
C642        H648   1.111       .  S
C649        C650   1.407       .  A
C649        C654   1.404       .  A
C649        H656   1.084       .  S
C650        C651   1.416       .  A
C651        C652   1.400       .  A
C651        C658   1.509       .  S
C652        C653   1.403       .  A
C652        H657   1.085       .  S
C653        C654   1.411       .  A
C654        C655   1.507       .  S
C655        H659   1.111       .  S
C655        H660   1.110       .  S
C655        H661   1.111       .  S
C658        H662   1.107       .  S
C658        H663   1.110       .  S
C658        H664   1.111       .  S
C665        C666   1.403       .  A
C665        C670   1.406       .  A
C665        H672   1.084       .  S
C666        C667   1.416       .  A
C667        C668   1.408       .  A
C667        C674   1.507       .  S
C668        C669   1.404       .  A
C668        H673   1.084       .  S
C669        C670   1.416       .  A
C670        C671   1.508       .  S
C671        H675   1.111       .  S
C671        H676   1.108       .  S
C671        H677   1.110       .  S
C674        H678   1.110       .  S
C674        H679   1.108       .  S
C674        H680   1.111       .  S
C681        C682   1.400       .  A
C681        C686   1.401       .  A
C681        H688   1.084       .  S
C682        C683   1.421       .  A
C683        C684   1.403       .  A
C683        C690   1.509       .  S
C684        C685   1.398       .  A
C684        H689   1.084       .  S
C685        C686   1.418       .  A
C686        C687   1.509       .  S
C687        H691   1.111       .  S
C687        H692   1.109       .  S
C687        H693   1.111       .  S
C690        H694   1.110       .  S
C690        H695   1.106       .  S
C690        H696   1.111       .  S
C697        C698   1.400       .  A
C697        C702   1.402       .  A
C697        H704   1.084       .  S
C698        C699   1.414       .  A
C699        C700   1.402       .  A
C699        C706   1.507       .  S
C700        C701   1.403       .  A
C700        H705   1.084       .  S
C701        C702   1.418       .  A
C702        C703   1.508       .  S
C703        H707   1.111       .  S
C703        H708   1.110       .  S
C703        H709   1.107       .  S
C706        H710   1.110       .  S
C706        H711   1.109       .  S
C706        H712   1.111       .  S
C713        C714   1.405       .  A
C713        C718   1.410       .  A
C713        H720   1.084       .  S
C714        C715   1.416       .  A
C715        C716   1.405       .  A
C715        C722   1.508       .  S
C716        C717   1.403       .  A
C716        H721   1.084       .  S
C717        C718   1.416       .  A
C718        C719   1.507       .  S
C719        H723   1.111       .  S
C719        H724   1.110       .  S
C719        H725   1.108       .  S
C722        H726   1.108       .  S
C722        H727   1.110       .  S
C722        H728   1.111       .  S
C729        C730   1.402       .  A
C729        C734   1.401       .  A
C729        H736   1.084       .  S
C730        C731   1.419       .  A
C731        C732   1.405       .  A
C731        C738   1.508       .  S
C732        C733   1.402       .  A
C732        H737   1.085       .  S
C733        C734   1.416       .  A
C734        C735   1.508       .  S
C735        H739   1.111       .  S
C735        H740   1.108       .  S
C735        H741   1.109       .  S
C738        H742   1.110       .  S
C738        H743   1.107       .  S
C738        H744   1.111       .  S
C745        C746   1.402       .  A
C745        C750   1.405       .  A
C745        H752   1.084       .  S
C746        C747   1.414       .  A
C747        C748   1.409       .  A
C747        C754   1.507       .  S
C748        C749   1.407       .  A
C748        H753   1.084       .  S
C749        C750   1.417       .  A
C750        C751   1.506       .  S
C751        H755   1.111       .  S
C751        H756   1.110       .  S
C751        H757   1.107       .  S
C754        H758   1.109       .  S
C754        H759   1.110       .  S
C754        H760   1.111       .  S
C761        C762   1.408       .  A
C761        C766   1.407       .  A
C761        H768   1.084       .  S
C762        C763   1.408       .  A
C763        C764   1.397       .  A
C763        C770   1.491       .  S
C764        C765   1.401       .  A
C764        H769   1.084       .  S
C765        C766   1.412       .  A
C766        C767   1.506       .  S
C767        H771   1.111       .  S
C767        H772   1.108       .  S
C767        H773   1.110       .  S
C770        H774   1.106       .  S
C770        H775   1.110       .  S
C770        H776   1.111       .  S
C777        C778   1.399       .  A
C777        C782   1.402       .  A
C777        H784   1.084       .  S
C778        C779   1.416       .  A
C779        C780   1.404       .  A
C779        C786   1.507       .  S
C780        C781   1.399       .  A
C780        H785   1.083       .  S
C781        C782   1.415       .  A
C782        C783   1.508       .  S
C783        H787   1.111       .  S
C783        H788   1.109       .  S
C783        H789   1.111       .  S
C786        H790   1.110       .  S
C786        H791   1.108       .  S
C786        H792   1.111       .  S
C793        C794   1.407       .  A
C793        C798   1.400       .  A
C793        H800   1.085       .  S
C794        C795   1.409       .  A
C795        C796   1.402       .  A
C795        C802   1.507       .  S
C796        C797   1.409       .  A
C796        H801   1.083       .  S
C797        C798   1.413       .  A
C798        C799   1.508       .  S
C799        H803   1.111       .  S
C799        H804   1.110       .  S
C799        H805   1.106       .  S
C802        H806   1.110       .  S
C802        H807   1.110       .  S
C802        H808   1.111       .  S
C809        C810   1.401       .  A
C809        C814   1.406       .  A
C809        H816   1.084       .  S
C810        C811   1.416       .  A
C811        C812   1.402       .  A
C811        C818   1.508       .  S
C812        C813   1.400       .  A
C812        H817   1.084       .  S
C813        C814   1.417       .  A
C814        C815   1.508       .  S
C815        H819   1.111       .  S
C815        H820   1.108       .  S
C815        H821   1.110       .  S
C818        H822   1.110       .  S
C818        H823   1.109       .  S
C818        H824   1.111       .  S
C825        C826   1.405       .  A
C825        C830   1.407       .  A
C825        H832   1.085       .  S
C826        C827   1.414       .  A
C827        C828   1.403       .  A
C827        C834   1.508       .  S
C828        C829   1.403       .  A
C828        H833   1.084       .  S
C829        C830   1.416       .  A
C830        C831   1.507       .  S
C831        H835   1.111       .  S
C831        H836   1.108       .  S
C831        H837   1.110       .  S
C834        H838   1.108       .  S
C834        H839   1.110       .  S
C834        H840   1.111       .  S
C841        C842   1.405       .  A
C841        C846   1.402       .  A
C841        H848   1.084       .  S
C842        C843   1.410       .  A
C843        C844   1.403       .  A
C843        C850   1.507       .  S
C844        C845   1.407       .  A
C844        H849   1.084       .  S
C845        C846   1.414       .  A
C846        C847   1.509       .  S
C847        H851   1.111       .  S
C847        H852   1.110       .  S
C847        H853   1.107       .  S
C850        H854   1.110       .  S
C850        H855   1.110       .  S
C850        H856   1.111       .  S
C857        C858   1.396       .  A
C857        C862   1.399       .  A
C857        H864   1.084       .  S
C858        C859   1.414       .  A
C859        C860   1.404       .  A
C859        C866   1.507       .  S
C860        C861   1.400       .  A
C860        H865   1.084       .  S
C861        C862   1.413       .  A
C862        C863   1.500       .  S
C863        H867   1.111       .  S
C863        H868   1.109       .  S
C863        H869   1.110       .  S
C866        H870   1.110       .  S
C866        H871   1.111       .  S
C866        H872   1.111       .  S
C873        C874   1.402       .  A
C873        C878   1.398       .  A
C873        H880   1.085       .  S
C874        C875   1.412       .  A
C875        C876   1.406       .  A
C875        C882   1.506       .  S
C876        C877   1.406       .  A
C876        H881   1.084       .  S
C877        C878   1.408       .  A
C878        C879   1.493       .  S
C879        H883   1.111       .  S
C879        H884   1.108       .  S
C879        H885   1.110       .  S
C882        H886   1.107       .  S
C882        H887   1.110       .  S
C882        H888   1.111       .  S
C889        C890   1.401       .  A
C889        C894   1.402       .  A
C889        H896   1.085       .  S
C890        C891   1.415       .  A
C891        C892   1.402       .  A
C891        C898   1.507       .  S
C892        C893   1.400       .  A
C892        H897   1.085       .  S
C893        C894   1.413       .  A
C894        C895   1.507       .  S
C895        H899   1.111       .  S
C895        H900   1.110       .  S
C895        H901   1.111       .  S
C898        H902   1.106       .  S
C898        H903   1.110       .  S
C898        H904   1.110       .  S
C905        C906   1.406       .  A
C905        C910   1.403       .  A
C905        H912   1.084       .  S
C906        C907   1.412       .  A
C907        C908   1.403       .  A
C907        C914   1.507       .  S
C908        C909   1.404       .  A
C908        H913   1.085       .  S
C909        C910   1.409       .  A
C910        C911   1.507       .  S
C911        H915   1.111       .  S
C911        H916   1.111       .  S
C911        H917   1.110       .  S
C914        H918   1.108       .  S
C914        H919   1.110       .  S
C914        H920   1.111       .  S
C921        C922   1.402       .  A
C921        C926   1.403       .  A
C921        H928   1.084       .  S
C922        C923   1.415       .  A
C923        C924   1.405       .  A
C923        C930   1.508       .  S
C924        C925   1.401       .  A
C924        H929   1.084       .  S
C925        C926   1.413       .  A
C926        C927   1.507       .  S
C927        H931   1.111       .  S
C927        H932   1.110       .  S
C927        H933   1.109       .  S
C930        H934   1.108       .  S
C930        H935   1.110       .  S
C930        H936   1.111       .  S
C937        C938   1.406   1_545  A
C937        C942   1.408       .  A
C937        H944   1.084       .  S
C938        C939   1.417       .  A
C939        C940   1.406       .  A
C939        C946   1.508       .  S
C940        C941   1.403       .  A
C940        H945   1.084       .  S
C941        C942   1.414   1_565  A
C942        C943   1.507       .  S
C943        H947   1.111       .  S
C943        H948   1.110       .  S
C943        H949   1.109       .  S
C946        H950   1.107       .  S
C946        H951   1.110       .  S
C946        H952   1.111       .  S
C953        C954   1.400       .  A
C953        C958   1.396       .  A
C953        H960   1.085       .  S
C954        C955   1.411       .  A
C955        C956   1.409       .  A
C955        C962   1.506       .  S
C956        C957   1.408       .  A
C956        H961   1.084       .  S
C957        C958   1.409       .  A
C958        C959   1.492       .  S
C959        H963   1.111       .  S
C959        H964   1.109       .  S
C959        H965   1.108       .  S
C962        H966   1.110       .  S
C962        H967   1.109       .  S
C962        H968   1.111       .  S
C969        C970   1.400       .  A
C969        C974   1.402       .  A
C969        H976   1.084       .  S
C970        C971   1.422       .  A
C971        C972   1.408       .  A
C971        C978   1.509       .  S
C972        C973   1.401       .  A
C972        H977   1.084       .  S
C973        C974   1.421       .  A
C974        C975   1.510       .  S
C975        H979   1.111       .  S
C975        H980   1.110       .  S
C975        H981   1.109       .  S
C978        H982   1.107       .  S
C978        H983   1.110       .  S
C978        H984   1.111       .  S
C985        C986   1.404       .  A
C985        C990   1.406       .  A
C985        H992   1.084       .  S
C986        C987   1.414   1_565  A
C987        C988   1.403       .  A
C987        C994   1.508       .  S
C988        C989   1.404   1_545  A
C988        H993   1.084       .  S
C989        C990   1.415       .  A
C990        C991   1.507       .  S
C991        H995   1.111       .  S
C991        H996   1.110       .  S
C991        H997   1.107       .  S
C994        H998   1.108       .  S
C994        H999   1.110       .  S
C994       H1000   1.111       .  S
C1001      C1002   1.407       .  A
C1001      C1006   1.403       .  A
C1001      H1008   1.084       .  S
C1002      C1003   1.412       .  A
C1003      C1004   1.399       .  A
C1003      C1010   1.509       .  S
C1004      C1005   1.404       .  A
C1004      H1009   1.085       .  S
C1005      C1006   1.409       .  A
C1006      C1007   1.507       .  S
C1007      H1011   1.111       .  S
C1007      H1012   1.110       .  S
C1007      H1013   1.111       .  S
C1010      H1014   1.110       .  S
C1010      H1015   1.108       .  S
C1010      H1016   1.111       .  S
C1017      C1018   1.401       .  A
C1017      C1022   1.398       .  A
C1017      H1024   1.084       .  S
C1018      C1019   1.417       .  A
C1019      C1020   1.403       .  A
C1019      C1026   1.508       .  S
C1020      C1021   1.401       .  A
C1020      H1025   1.084       .  S
C1021      C1022   1.413       .  A
C1022      C1023   1.507       .  S
C1023      H1027   1.111       .  S
C1023      H1028   1.109       .  S
C1023      H1029   1.110       .  S
C1026      H1030   1.107       .  S
C1026      H1031   1.110       .  S
C1026      H1032   1.111       .  S
C1033      C1034   1.403       .  A
C1033      C1038   1.401       .  A
C1033      H1040   1.084       .  S
C1034      C1035   1.419       .  A
C1035      C1036   1.403       .  A
C1035      C1042   1.508       .  S
C1036      C1037   1.401       .  A
C1036      H1041   1.085       .  S
C1037      C1038   1.415       .  A
C1038      C1039   1.508       .  S
C1039      H1043   1.111       .  S
C1039      H1044   1.109       .  S
C1039      H1045   1.107       .  S
C1042      H1046   1.107       .  S
C1042      H1047   1.110       .  S
C1042      H1048   1.111       .  S
C1049      C1050   1.403   1_455  A
C1049      C1054   1.400       .  A
C1049      H1056   1.084       .  S
C1050      C1051   1.418   1_655  A
C1051      C1052   1.403       .  A
C1051      C1058   1.508   1_455  S
C1052      C1053   1.402       .  A
C1052      H1057   1.083       .  S
C1053      C1054   1.415       .  A
C1054      C1055   1.508       .  S
C1055      H1059   1.111       .  S
C1055      H1060   1.110       .  S
C1055      H1061   1.109       .  S
C1058      H1062   1.110       .  S
C1058      H1063   1.106       .  S
C1058      H1064   1.111   1_655  S
C1065      C1066   1.400       .  A
C1065      C1070   1.403       .  A
C1065      H1072   1.084       .  S
C1066      C1067   1.417       .  A
C1067      C1068   1.405       .  A
C1067      C1074   1.508       .  S
C1068      C1069   1.400       .  A
C1068      H1073   1.084       .  S
C1069      C1070   1.416       .  A
C1070      C1071   1.508       .  S
C1071      H1075   1.111       .  S
C1071      H1076   1.110       .  S
C1071      H1077   1.109       .  S
C1074      H1078   1.108       .  S
C1074      H1079   1.110       .  S
C1074      H1080   1.111       .  S
C1081      C1082   1.407       .  A
C1081      C1086   1.405       .  A
C1081      H1088   1.084   1_455  S
C1082      C1083   1.412       .  A
C1083      C1084   1.403       .  A
C1083      C1090   1.507       .  S
C1084      C1085   1.404       .  A
C1084      H1089   1.085       .  S
C1085      C1086   1.410       .  A
C1086      C1087   1.507       .  S
C1087      H1091   1.111       .  S
C1087      H1092   1.110       .  S
C1087      H1093   1.111       .  S
C1090      H1094   1.110   1_455  S
C1090      H1095   1.107       .  S
C1090      H1096   1.111       .  S
C1097      C1098   1.404       .  A
C1097      C1102   1.402       .  A
C1097      H1104   1.085       .  S
C1098      C1099   1.409       .  A
C1099      C1100   1.405       .  A
C1099      C1106   1.506       .  S
C1100      C1101   1.408       .  A
C1100      H1105   1.084       .  S
C1101      C1102   1.413       .  A
C1102      C1103   1.508       .  S
C1103      H1107   1.111       .  S
C1103      H1108   1.107       .  S
C1103      H1109   1.110       .  S
C1106      H1110   1.110       .  S
C1106      H1111   1.110       .  S
C1106      H1112   1.111       .  S
C1113      C1114   1.402       .  A
C1113      C1118   1.403       .  A
C1113      H1120   1.084       .  S
C1114      C1115   1.417       .  A
C1115      C1116   1.405       .  A
C1115      C1122   1.508       .  S
C1116      C1117   1.402       .  A
C1116      H1121   1.084       .  S
C1117      C1118   1.415       .  A
C1118      C1119   1.508       .  S
C1119      H1123   1.111       .  S
C1119      H1124   1.108       .  S
C1119      H1125   1.109       .  S
C1122      H1126   1.107       .  S
C1122      H1127   1.110       .  S
C1122      H1128   1.111       .  S
C1129      C1130   1.404       .  A
C1129      C1134   1.401       .  A
C1129      H1136   1.085       .  S
C1130      C1131   1.408       .  A
C1131      C1132   1.403       .  A
C1131      C1138   1.506       .  S
C1132      C1133   1.407       .  A
C1132      H1137   1.084       .  S
C1133      C1134   1.411       .  A
C1134      C1135   1.508       .  S
C1135      H1139   1.111       .  S
C1135      H1140   1.109       .  S
C1135      H1141   1.110       .  S
C1138      H1142   1.111       .  S
C1138      H1143   1.110       .  S
C1138      H1144   1.111       .  S
C1145      C1146   1.404       .  A
C1145      C1150   1.400       .  A
C1145      H1152   1.085       .  S
C1146      C1147   1.410       .  A
C1147      C1148   1.403       .  A
C1147      C1154   1.507       .  S
C1148      C1149   1.405       .  A
C1148      H1153   1.085       .  S
C1149      C1150   1.408       .  A
C1150      C1151   1.501       .  S
C1151      H1155   1.111       .  S
C1151      H1156   1.110       .  S
C1151      H1157   1.106       .  S
C1154      H1158   1.110       .  S
C1154      H1159   1.109       .  S
C1154      H1160   1.111       .  S
C1161      C1162   1.402       .  A
C1161      C1166   1.403   1_556  A
C1161      H1168   1.084       .  S
C1162      C1163   1.416       .  A
C1163      C1164   1.410   1_556  A
C1163      C1170   1.507       .  S
C1164      C1165   1.405       .  A
C1164      H1169   1.084       .  S
C1165      C1166   1.416       .  A
C1166      C1167   1.508       .  S
C1167      H1171   1.111       .  S
C1167      H1172   1.110       .  S
C1167      H1173   1.108       .  S
C1170      H1174   1.109       .  S
C1170      H1175   1.110       .  S
C1170      H1176   1.111       .  S
C1177      C1178   1.400       .  A
C1177      C1182   1.402       .  A
C1177      H1184   1.084       .  S
C1178      C1179   1.418       .  A
C1179      C1180   1.403       .  A
C1179      C1186   1.506       .  S
C1180      C1181   1.398       .  A
C1180      H1185   1.084       .  S
C1181      C1182   1.416       .  A
C1182      C1183   1.508       .  S
C1183      H1187   1.111       .  S
C1183      H1188   1.109       .  S
C1183      H1189   1.110       .  S
C1186      H1190   1.110       .  S
C1186      H1191   1.106       .  S
C1186      H1192   1.111       .  S
C1193      C1194   1.400   1_455  A
C1193      C1198   1.401       .  A
C1193      H1200   1.085       .  S
C1194      C1195   1.417   1_655  A
C1195      C1196   1.401       .  A
C1195      C1202   1.507   1_455  S
C1196      C1197   1.399       .  A
C1196      H1201   1.085       .  S
C1197      C1198   1.417       .  A
C1198      C1199   1.508       .  S
C1199      H1203   1.111       .  S
C1199      H1204   1.106       .  S
C1199      H1205   1.110       .  S
C1202      H1206   1.110       .  S
C1202      H1207   1.107       .  S
C1202      H1208   1.111   1_655  S
C1209      C1210   1.403       .  A
C1209      C1214   1.406   1_556  A
C1209      H1216   1.084       .  S
C1210      C1211   1.416       .  A
C1211      C1212   1.409   1_556  A
C1211      C1218   1.506       .  S
C1212      C1213   1.405       .  A
C1212      H1217   1.084       .  S
C1213      C1214   1.416       .  A
C1214      C1215   1.508       .  S
C1215      H1219   1.111       .  S
C1215      H1220   1.110       .  S
C1215      H1221   1.108       .  S
C1218      H1222   1.107       .  S
C1218      H1223   1.110       .  S
C1218      H1224   1.111       .  S
C1225      C1226   1.401       .  A
C1225      C1230   1.401       .  A
C1225      H1232   1.085       .  S
C1226      C1227   1.413       .  A
C1227      C1228   1.405       .  A
C1227      C1234   1.506       .  S
C1228      C1229   1.402       .  A
C1228      H1233   1.084       .  S
C1229      C1230   1.409       .  A
C1230      C1231   1.503       .  S
C1231      H1235   1.111       .  S
C1231      H1236   1.110       .  S
C1231      H1237   1.103       .  S
C1234      H1238   1.109       .  S
C1234      H1239   1.110       .  S
C1234      H1240   1.111       .  S
C1241      C1242   1.404   1_455  A
C1241      C1246   1.403       .  A
C1241      H1248   1.084       .  S
C1242      C1243   1.416   1_655  A
C1243      C1244   1.403       .  A
C1243      C1250   1.508   1_455  S
C1244      C1245   1.401       .  A
C1244      H1249   1.083       .  S
C1245      C1246   1.412       .  A
C1246      C1247   1.507       .  S
C1247      H1251   1.111       .  S
C1247      H1252   1.110       .  S
C1247      H1253   1.111       .  S
C1250      H1254   1.110       .  S
C1250      H1255   1.107       .  S
C1250      H1256   1.111   1_655  S
C1257      C1258   1.406       .  A
C1257      C1262   1.410   1_565  A
C1257      H1264   1.084       .  S
C1258      C1259   1.414   1_556  A
C1259      C1260   1.400   1_565  A
C1259      C1266   1.509       .  S
C1260      C1261   1.402   1_554  A
C1260      H1265   1.085       .  S
C1261      C1262   1.413       .  A
C1262      C1263   1.506       .  S
C1263      H1267   1.111       .  S
C1263      H1268   1.109       .  S
C1263      H1269   1.110       .  S
C1266      H1270   1.110       .  S
C1266      H1271   1.108       .  S
C1266      H1272   1.111       .  S
C1273      C1274   1.405       .  A
C1273      C1278   1.404       .  A
C1273      H1280   1.084       .  S
C1274      C1275   1.412       .  A
C1275      C1276   1.401       .  A
C1275      C1282   1.508       .  S
C1276      C1277   1.401       .  A
C1276      H1281   1.085       .  S
C1277      C1278   1.409       .  A
C1278      C1279   1.506       .  S
C1279      H1283   1.111       .  S
C1279      H1284   1.110       .  S
C1279      H1285   1.110       .  S
C1282      H1286   1.110       .  S
C1282      H1287   1.109       .  S
C1282      H1288   1.111       .  S
C1289      C1290   1.407       .  A
C1289      C1294   1.403       .  A
C1289      H1296   1.084       .  S
C1290      C1291   1.414       .  A
C1291      C1292   1.401       .  A
C1291      C1298   1.505       .  S
C1292      C1293   1.409       .  A
C1292      H1297   1.083       .  S
C1293      C1294   1.420       .  A
C1294      C1295   1.510       .  S
C1295      H1299   1.111       .  S
C1295      H1300   1.110       .  S
C1295      H1301   1.108       .  S
C1298      H1302   1.110       .  S
C1298      H1303   1.099       .  S
C1298      H1304   1.111       .  S
C1305      C1306   1.404       .  A
C1305      C1310   1.410   1_565  A
C1305      H1312   1.084       .  S
C1306      C1307   1.416   1_556  A
C1307      C1308   1.405   1_565  A
C1307      C1314   1.508       .  S
C1308      C1309   1.402   1_554  A
C1308      H1313   1.084       .  S
C1309      C1310   1.415       .  A
C1310      C1311   1.506       .  S
C1311      H1315   1.111       .  S
C1311      H1316   1.110       .  S
C1311      H1317   1.108       .  S
C1314      H1318   1.108       .  S
C1314      H1319   1.110       .  S
C1314      H1320   1.111       .  S
C1321      C1322   1.398       .  A
C1321      C1326   1.398       .  A
C1321      H1328   1.085       .  S
C1322      C1323   1.419       .  A
C1323      C1324   1.405       .  A
C1323      C1330   1.508       .  S
C1324      C1325   1.402       .  A
C1324      H1329   1.081       .  S
C1325      C1326   1.414       .  A
C1326      C1327   1.494       .  S
C1327      H1331   1.111       .  S
C1327      H1332   1.111       .  S
C1327      H1333   1.099       .  S
C1330      H1334   1.110       .  S
C1330      H1335   1.107       .  S
C1330      H1336   1.111       .  S
C1337      C1338   1.398       .  A
C1337      C1342   1.395       .  A
C1337      H1344   1.084       .  S
C1338      C1339   1.418       .  A
C1339      C1340   1.405       .  A
C1339      C1346   1.508       .  S
C1340      C1341   1.403       .  A
C1340      H1345   1.082       .  S
C1341      C1342   1.413       .  A
C1342      C1343   1.495       .  S
C1343      H1347   1.111       .  S
C1343      H1348   1.101       .  S
C1343      H1349   1.110       .  S
C1346      H1350   1.107       .  S
C1346      H1351   1.110       .  S
C1346      H1352   1.111       .  S
