geometry optimzed in LAMMPS
_audit_creation_date              2020-11-30 
_audit_creation_method            'lammps2cif' 
_symmetry_space_group_name_H-M    'P1' 
_symmetry_Int_Tables_number       1 
_symmetry_cell_setting            triclinic 
loop_ 
_symmetry_equiv_pos_as_xyz 
  x,y,z 
_cell_length_a                    45.209873928439336 
_cell_length_b                    45.58553384120196 
_cell_length_c                    25.018056835390173 
_cell_angle_alpha                 91.8521839453899 
_cell_angle_beta                  89.74415113946684 
_cell_angle_gamma                 91.82528077061218 
loop_ 
_atom_site_label 
_atom_site_type_symbol 
_atom_site_fract_x 
_atom_site_fract_y 
_atom_site_fract_z 
_atom_site_charge 
O1          O  0.14068669  0.38464119  0.37387716    -0.80660
O2          O  0.11904477  0.27079717  0.34021130    -0.80690
O3          O  0.16090277  0.34409850  0.27811477    -0.80690
O4          O  0.09229659  0.31215983  0.42226269    -0.80640
O5          O  0.15073777  0.29790164  0.26677689    -0.80760
O6          O  0.10197641  0.35857117  0.43855658    -0.80680
O7          O  0.11902734  0.26123878  0.42390927    -0.80660
O8          O  0.18533532  0.38170035  0.34171467    -0.80700
C9          C  0.16068534  0.39448208  0.34398235     1.09030
C10         C  0.11118467  0.25388085  0.37641594     1.08910
C11         C  0.15107514  0.32340301  0.24919486     1.09050
C12         C  0.08346159  0.33744681  0.43192357     1.08930
O13         O  0.14831285  0.34039092  0.50701661    -0.80660
O14         O  0.20476670  0.29293999  0.33078677    -0.80740
O15         O  0.20997157  0.33231103  0.40289669    -0.80680
O16         O  0.17176838  0.29358158  0.46626759    -0.80660
O17         O  0.17310637  0.26065230  0.40193183    -0.80710
O18         O  0.19063472  0.36995165  0.44283071    -0.80670
O19         O  0.11931471  0.30000262  0.51455091    -0.80630
O20         O  0.21891192  0.33476212  0.29495505    -0.80700
Co21       Co  0.14611492  0.36000505  0.43502782     1.51530
Co22       Co  0.16067690  0.28404895  0.33859705     1.51690
Co23       Co  0.18447085  0.33690443  0.34073136     1.51570
Co24       Co  0.13237619  0.30393199  0.44293705     1.51470
O25         O  0.14886076  0.32334710  0.38011009    -1.42600
C26         C  0.13454667  0.32122109  0.53555774     1.08950
C27         C  0.22171152  0.30720157  0.29884770     1.09040
C28         C  0.21307067  0.35428660  0.43351328     1.08980
C29         C  0.17989445  0.26920678  0.44911580     1.08960
O30         O  0.14247489  0.36705086  0.00300847    -0.80660
O31         O  0.20741119  0.29101429  0.85012812    -0.80690
O32         O  0.16525048  0.28003799  0.96201304    -0.80690
O33         O  0.20657431  0.37284776  0.87314700    -0.80640
O34         O  0.17215577  0.24991033  0.89480980    -0.80760
O35         O  0.19083677  0.34934030  0.94550252    -0.80680
O36         O  0.20900060  0.32995510  0.80736606    -0.80660
O37         O  0.13100270  0.32038889  0.99858795    -0.80700
C38         C  0.13517083  0.34382542  0.02670214     1.09030
C39         C  0.21981637  0.30549016  0.81430608     1.08910
C40         C  0.17682126  0.25774696  0.94304111     1.09050
C41         C  0.21018898  0.36570933  0.92140245     1.08930
O42         O  0.14428402  0.38512499  0.90124051    -0.80660
O43         O  0.12672155  0.26414863  0.81675232    -0.80740
O44         O  0.08736617  0.30184159  0.92182136    -0.80680
O45         O  0.16093644  0.34769429  0.79074894    -0.80660
O46         O  0.16240947  0.29984283  0.76789648    -0.80710
O47         O  0.10183564  0.34801833  0.92755061    -0.80670
O48         O  0.15539884  0.36967266  0.82167453    -0.80630
O49         O  0.11689151  0.25331968  0.89872979    -0.80700
Co50       Co  0.14582300  0.34588776  0.93461093     1.51530
Co51       Co  0.16602364  0.27858432  0.83530759     1.51690
Co52       Co  0.12696259  0.29053645  0.93900795     1.51570
Co53       Co  0.17854173  0.34162840  0.86309472     1.51470
O54         O  0.14632216  0.31338582  0.87543479    -1.42600
C55         C  0.14410712  0.38927993  0.85178675     1.08950
C56         C  0.11230805  0.24936801  0.84934722     1.09040
C57         C  0.08130382  0.32841541  0.92602859     1.08980
C58         C  0.15747873  0.32615776  0.75665853     1.08960
O59         O  0.46979862  0.41550915  0.95581937    -0.80660
O60         O  0.32613665  0.42062183  0.04555011    -0.80690
O61         O  0.39580354  0.37011292  0.00060489    -0.80690
O62         O  0.38164550  0.42211808  0.89344252    -0.80640
O63         O  0.36654057  0.37883999  0.07008574    -0.80760
O64         O  0.41674904  0.39611826  0.92635088    -0.80680
O65         O  0.33910654  0.40966851  0.96360484    -0.80660
O66         O  0.45838966  0.37777603  0.00765238    -0.80700
C67         C  0.47590163  0.39032196  0.97381334     1.09030
C68         C  0.32085068  0.40771691  0.00116007     1.08910
C69         C  0.37698306  0.36109512  0.03402791     1.09050
C70         C  0.39941776  0.40141515  0.88876782     1.08930
O71         O  0.42914952  0.45544088  0.91678141    -0.80660
O72         O  0.40173986  0.42775351  0.12189746    -0.80740
O73         O  0.45297963  0.42758407  0.06631422    -0.80680
O74         O  0.34344337  0.47029225  0.00694806    -0.80660
O75         O  0.36433014  0.46688652  0.08633347    -0.80710
O76         O  0.44696816  0.46316647  0.01664998    -0.80670
O77         O  0.38954786  0.47963310  0.94023688    -0.80630
O78         O  0.41955055  0.38561687  0.10217270    -0.80700
Co79       Co  0.43059235  0.42837215  0.97645094     1.51530
Co80       Co  0.36619700  0.42395784  0.07870842     1.51690
Co81       Co  0.42361470  0.40082370  0.02654642     1.51570
Co82       Co  0.36486711  0.44440194  0.95480108     1.51470
O83         O  0.39161824  0.43127941  0.01362135    -1.42600
C84         C  0.41364946  0.47795753  0.91519857     1.08950
C85         C  0.41101284  0.40402359  0.13761107     1.09040
C86         C  0.95668802  0.44340483  0.05884032     1.08980
C87         C  0.35362757  0.48210178  0.05007983     1.08960
O88         O  0.45178463  0.37073286  0.46932167    -0.80660
O89         O  0.33527184  0.40299379  0.54467294    -0.80690
O90         O  0.40347759  0.35308430  0.53411587    -0.80690
O91         O  0.37960673  0.42141513  0.39177196    -0.80640
O92         O  0.37104218  0.36339756  0.59762182    -0.80760
O93         O  0.42192943  0.39754196  0.39416934    -0.80680
O94         O  0.35713527  0.38752720  0.47260459    -0.80660
O95         O  0.46288786  0.35649683  0.55071564    -0.80700
C96         C  0.46849441  0.35724475  0.50092961     1.09030
C97         C  0.33364695  0.38979844  0.50011960     1.08910
C98         C  0.38390769  0.34473949  0.56672415     1.09050
C99         C  0.40068397  0.40779720  0.36705497     1.08930
O100        O  0.44731452  0.43559894  0.45522320    -0.80660
O101        O  0.39832458  0.41455814  0.65075547    -0.80740
O102        O  0.46102542  0.41381024  0.58010883    -0.80680
O103        O  0.35569401  0.45188548  0.49792280    -0.80660
O104        O  0.36521957  0.45148132  0.58598372    -0.80710
O105        O  0.46129856  0.42406906  0.49489323    -0.80670
O106        O  0.40828486  0.46077511  0.45697156    -0.80630
O107        O  0.42554416  0.37622986  0.63395184    -0.80700
Co108      Co  0.42070191  0.40159998  0.47282971     1.51530
Co109      Co  0.36940907  0.40832920  0.59248384     1.51690
Co110      Co  0.43198574  0.38427296  0.55660425     1.51570
Co111      Co  0.38555092  0.42267616  0.47039116     1.51470
O112        O  0.40396650  0.41467894  0.54281388    -1.42600
C113        C  0.43500278  0.45925871  0.44386854     1.08950
C114        C  0.41263167  0.39317769  0.66698024     1.09040
C115        C  0.47256345  0.42771197  0.54268868     1.08980
C116        C  0.35689763  0.46496507  0.54443039     1.08960
O117        O  0.25879678  0.20405030  0.13574078    -0.80660
O118        O  0.36730106  0.12719130  0.06472713    -0.80690
O119        O  0.32389526  0.20797763  0.00056614    -0.80690
O120        O  0.28575208  0.12236352  0.17564774    -0.80640
O121        O  0.33949181  0.16303811  0.99513136    -0.80760
O122        O  0.26697901  0.15072314  0.12254863    -0.80680
O123        O  0.32404339  0.11678359  0.09656914    -0.80660
O124        O  0.27495857  0.20361497  0.05372937    -0.80700
C125        C  0.25433589  0.20755373  0.08613852     1.09030
C126        C  0.34725820  0.10835244  0.07557203     1.08910
C127        C  0.32671497  0.18402007  0.97438401     1.09050
C128        C  0.26359331  0.12835798  0.14887853     1.08930
O129        O  0.27584138  0.17278532  0.23076683    -0.80660
O130        O  0.37382208  0.21399600  0.03658093    -0.80740
O131        O  0.29912394  0.24056641  0.13960891    -0.80680
O132        O  0.37147763  0.14182701  0.16596746    -0.80660
O133        O  0.38923748  0.17935499  0.12181018    -0.80710
O134        O  0.31604345  0.21314087  0.19810342    -0.80670
O135        O  0.32361078  0.16295674  0.23307723    -0.80630
O136        O  0.35205706  0.22954894  0.10521862    -0.80700
Co137      Co  0.29330390  0.17984923  0.16095355     1.51530
Co138      Co  0.36373856  0.17133876  0.05931042     1.51690
Co139      Co  0.31377396  0.21699828  0.07748464     1.51570
Co140      Co  0.32628190  0.14122993  0.16096855     1.51470
O141        O  0.32327006  0.17652022  0.10455750    -1.42600
C142        C  0.29927558  0.16913692  0.25790459     1.08950
C143        C  0.36765460  0.23568053  0.06674610     1.09040
C144        C  0.30553778  0.23720064  0.18729949     1.08980
C145        C  0.39329901  0.15839228  0.15202397     1.08960
O146        O  0.23971975  0.19267260  0.64218513    -0.80660
O147        O  0.33924593  0.10906266  0.54947749    -0.80690
O148        O  0.30999992  0.20295072  0.51759538    -0.80690
O149        O  0.28534848  0.11777152  0.68881137    -0.80640
O150        O  0.31296219  0.15568173  0.50452324    -0.80760
O151        O  0.26162786  0.13690116  0.62280360    -0.80680
O152        O  0.33474118  0.09856376  0.63491383    -0.80660
O153        O  0.26535421  0.18578345  0.57029940    -0.80700
C154        C  0.24192634  0.19522195  0.59169010     1.09030
C155        C  0.33804833  0.09054110  0.58664274     1.08910
C156        C  0.30775914  0.18030326  0.48659082     1.09050
C157        C  0.26202245  0.11902432  0.65984453     1.08930
O158        O  0.27737835  0.16828005  0.72296691    -0.80660
O159        O  0.36141413  0.19715912  0.54345049    -0.80740
O160        O  0.28873927  0.24070770  0.60584685    -0.80680
O161        O  0.37187777  0.14415533  0.67740454    -0.80660
O162        O  0.38436569  0.14790644  0.59165917    -0.80710
O163        O  0.29532674  0.21419851  0.67437353    -0.80670
O164        O  0.32510476  0.16738473  0.72922838    -0.80630
O165        O  0.34403165  0.21666176  0.61733816    -0.80700
Co166      Co  0.27952702  0.17513344  0.64352318     1.51530
Co167      Co  0.34720473  0.15307258  0.55168417     1.51690
Co168      Co  0.30505616  0.20049410  0.59808370     1.51570
Co169      Co  0.32861771  0.13418504  0.67857464     1.51470
O170        O  0.31952700  0.16039547  0.61660698    -1.42600
C171        C  0.30052610  0.17052701  0.75132607     1.08950
C172        C  0.35986661  0.21924928  0.57662599     1.09040
C173        C  0.28714246  0.23839908  0.65646653     1.08980
C174        C  0.39104916  0.14492927  0.64016373     1.08960
O175        O  0.09222985  0.50523606  0.30218107    -0.80660
O176        O  0.08921132  0.13488892  0.24189444    -0.80690
O177        O  0.13579762  0.06121440  0.20066322    -0.80690
O178        O  0.07759051  0.08065150  0.33892202    -0.80640
O179        O  0.12185015  0.10296580  0.16565737    -0.80760
O180        O  0.07516244  0.03321233  0.33876478    -0.80680
O181        O  0.05075507  0.12450076  0.29459336    -0.80660
O182        O  0.11667606  0.00360628  0.17540829    -0.80700
C183        C  0.11002664  0.49766399  0.26560237     1.09030
C184        C  0.07242846  0.14146692  0.28125998     1.08910
C185        C  0.14202068  0.08566984  0.17940826     1.09050
C186        C  0.07958910  0.05743490  0.36389242     1.08930
O187        O  0.02335550  0.03671335  0.28009039    -0.80660
O188        O  0.06600276  0.08410019  0.11536761    -0.80740
O189        O  0.06940026  0.52545399  0.15573180    -0.80680
O190        O  0.01622753  0.08183961  0.22832096    -0.80660
O191        O  0.03546845  0.11920616  0.18726311    -0.80710
O192        O  0.04769004  0.51135985  0.22858137    -0.80670
O193        O  0.01712995  0.07421839  0.33646586    -0.80630
O194        O  0.09805987  0.04915417  0.11381552    -0.80700
Co195      Co  0.06765295  0.03128091  0.25987513     1.51530
Co196      Co  0.07823838  0.10774279  0.18056393     1.51690
Co197      Co  0.09678775  0.04020212  0.19186479     1.51570
Co198      Co  0.04770555  0.08042991  0.28310035     1.51470
O199        O  0.07800068  0.07362153  0.23137828    -1.42600
C200        C  0.01151699  0.04730611  0.32371258     1.08950
C201        C  0.08017117  0.06476829  0.08948145     1.09040
C202        C  0.04898390  0.51010816  0.17819299     1.08980
C203        C  0.01284234  0.10409225  0.20105183     1.08960
O204        O  0.06077893  0.49037863  0.77129510    -0.80660
O205        O  0.08481012  0.12441529  0.75081602    -0.80690
O206        O  0.13555525  0.04717584  0.69315692    -0.80690
O207        O  0.06340104  0.08456625  0.83876821    -0.80640
O208        O  0.11970819  0.09262048  0.68312359    -0.80760
O209        O  0.06309276  0.03646944  0.82666589    -0.80680
O210        O  0.04071027  0.13009560  0.78062515    -0.80660
O211        O  0.10312260  0.50985195  0.74085607    -0.80700
C212        C  0.08824450  0.48865430  0.76298841     1.09030
C213        C  0.06635359  0.13974047  0.77485422     1.08910
C214        C  0.14117491  0.07402431  0.68471636     1.09050
C215        C  0.06753158  0.05950839  0.85657580     1.08930
O216        O  0.00942521  0.02590259  0.75554198    -0.80660
O217        O  0.06668030  0.08483677  0.61463503    -0.80740
O218        O  0.08361757  0.52197691  0.64589789    -0.80680
O219        O  0.00178203  0.09241310  0.73402737    -0.80660
O220        O  0.03092665  0.11760663  0.67786268    -0.80710
O221        O  0.04171495  0.51535023  0.68542021    -0.80670
O222        O  0.00759023  0.05759102  0.82083767    -0.80630
O223        O  0.09381948  0.04663305  0.62584715    -0.80700
Co224      Co  0.05189040  0.02778379  0.74747136     1.51530
Co225      Co  0.07377428  0.10238137  0.68476411     1.51690
Co226      Co  0.09494275  0.04988308  0.70832202     1.51570
Co227      Co  0.03230354  0.08820391  0.78610184     1.51470
O228        O  0.05517685  0.06719651  0.72462779    -1.42600
C229        C  0.50067351  0.04242304  0.81373524     1.08950
C230        C  0.08137349  0.06430811  0.59466279     1.09040
C231        C  0.05755817  0.51016724  0.64620840     1.08980
C232        C  0.00501939  0.10849386  0.69394313     1.08960
C233        C  0.08234328  0.06083302  0.53556000    -0.00680
C234        C  0.07016147  0.08348041  0.50708488    -0.12550
C235        C  0.06951499  0.08282081  0.45185729     0.01560
C236        C  0.08222692  0.05930790  0.42255137    -0.00770
C237        C  0.09453797  0.03642521  0.45037777    -0.12490
C238        C  0.09481251  0.03700410  0.50658966     0.01440
H239        H  0.06031446  0.10198891  0.52802068     0.14420
H240        H  0.10368784  0.01797186  0.42819974     0.14420
C241        C  0.10748844  0.01264747  0.53255105     0.36070
C242        C  0.05326223  0.10573909  0.42767180     0.35980
N243        N  0.11765092  0.99276071  0.55241650    -0.44270
N244        N  0.03965775  0.12421224  0.41014291    -0.44270
C245        C  0.07588817  0.06087585  0.02985005    -0.00680
C246        C  0.09704407  0.04616810  0.99778496    -0.12550
C247        C  0.09472047  0.04434627  0.94127993     0.01560
C248        C  0.07114167  0.05769137  0.91572725    -0.00770
C249        C  0.04944109  0.07101128  0.94771521    -0.12490
C250        C  0.05137024  0.07259479  0.00360936     0.01440
H251        H  0.11585536  0.03666621  0.01669315     0.14420
H252        H  0.03063774  0.08050376  0.92861476     0.14420
C253        C  0.02736900  0.08615167  0.03250006     0.36070
C254        C  0.11722179  0.02971943  0.91040074     0.35980
N255        N  0.51547719  0.11466989  0.05110341    -0.44270
N256        N  0.13527174  0.01796125  0.88562430    -0.44270
C257        C  0.47958753  0.11886546  0.67649661    -0.00680
C258        C  0.47545382  0.14727776  0.65782948    -0.12550
C259        C  0.44684785  0.15658274  0.64502210     0.01560
C260        C  0.42191272  0.13769401  0.65291812    -0.00770
C261        C  0.42632915  0.10911121  0.66909930    -0.12490
C262        C  0.45463130  0.09940536  0.67943316     0.01440
H263        H  0.49430775  0.16243974  0.65480581     0.14420
H264        H  0.40748089  0.09390036  0.67222989     0.14420
C265        C  0.45745937  0.06873950  0.69027802     0.36070
C266        C  0.44349145  0.18565400  0.62525800     0.35980
N267        N  0.45956647  0.04397773  0.69749876    -0.44270
N268        N  0.44086947  0.20892959  0.60911467    -0.44270
C269        C  0.23316056  0.10421357  0.67378465    -0.00680
C270        C  0.22296143  0.07978737  0.64260739    -0.12550
C271        C  0.19328400  0.06934163  0.64572754     0.01560
C272        C  0.17270364  0.08416412  0.67889458    -0.00770
C273        C  0.18288229  0.10826762  0.71025528    -0.12490
C274        C  0.21259560  0.11809941  0.70873916     0.01440
H275        H  0.23800054  0.06935562  0.61453494     0.14420
H276        H  0.16749417  0.11933466  0.73687219     0.14420
C277        C  0.22041191  0.14285364  0.74367452     0.36070
C278        C  0.18424434  0.04421857  0.61254130     0.35980
N279        N  0.22472973  0.16252275  0.77334603    -0.44270
N280        N  0.17724854  0.02401193  0.58584092    -0.44270
C281        C  0.30008862  0.17512942  0.80962277    -0.00680
C282        C  0.31006391  0.20246217  0.83074052    -0.12550
C283        C  0.31753901  0.20618580  0.88470085     0.01560
C284        C  0.31664461  0.18168003  0.91813165    -0.00770
C285        C  0.30617245  0.15436915  0.89710581    -0.12490
C286        C  0.29769742  0.15099972  0.84338741     0.01440
H287        H  0.31360588  0.22067521  0.80441872     0.14420
H288        H  0.30503797  0.13551033  0.92247367     0.14420
C289        C  0.28862860  0.12213751  0.82291100     0.36070
C290        C  0.32777214  0.23505938  0.90341775     0.35980
N291        N  0.28142622  0.09895207  0.80668999    -0.44270
N292        N  0.33575049  0.25827775  0.91825303    -0.44270
C293        C  0.29981918  0.17526640  0.31625723    -0.00680
C294        C  0.27596414  0.16565462  0.34796006    -0.12550
C295        C  0.27740444  0.16831496  0.40393406     0.01560
C296        C  0.30250833  0.18194268  0.42873665    -0.00770
C297        C  0.32594523  0.19211648  0.39691440    -0.12490
C298        C  0.32470072  0.18932678  0.34123829     0.01440
H299        H  0.25687449  0.15470299  0.32914421     0.14420
H300        H  0.34592522  0.20120432  0.41575264     0.14420
C301        C  0.34937328  0.20112909  0.31093085     0.36070
C302        C  0.25358590  0.15559037  0.43505050     0.35980
N303        N  0.36912991  0.21064295  0.28673530    -0.44270
N304        N  0.23448865  0.14539339  0.45999720    -0.44270
C305        C  0.42427912  0.14933021  0.16171851    -0.00680
C306        C  0.43070100  0.11979874  0.15114685    -0.12550
C307        C  0.45954541  0.10976287  0.15535703     0.01560
C308        C  0.48306591  0.12909313  0.17257671    -0.00770
C309        C  0.47701383  0.15900990  0.18087169    -0.12490
C310        C  0.44804338  0.16928639  0.17459420     0.01440
H311        H  0.41308542  0.10442764  0.13848228     0.14420
H312        H  0.49445474  0.17408789  0.19502582     0.14420
C313        C  0.44297572  0.20011503  0.18397636     0.36070
C314        C  0.46436654  0.07912831  0.14237476     0.35980
N315        N  0.43886293  0.22484744  0.19135367    -0.44270
N316        N  0.46821872  0.05462009  0.13194952    -0.44270
C317        C  0.17366345  0.09429495  0.16886213    -0.00680
C318        C  0.19565390  0.08720084  0.20538835    -0.12550
C319        C  0.22540167  0.09649516  0.19842250     0.01560
C320        C  0.23383270  0.11325359  0.15374529    -0.00770
C321        C  0.21198658  0.11913385  0.11603657    -0.12490
C322        C  0.18233810  0.10990639  0.12304676     0.01440
H323        H  0.18935810  0.07538417  0.24077028     0.14420
H324        H  0.21797460  0.13162428  0.08123712     0.14420
C325        C  0.16139696  0.11648204  0.08198642     0.36070
C326        C  0.24628770  0.08988572  0.23947182     0.35980
N327        N  0.14465427  0.12171997  0.04902696    -0.44270
N328        N  0.26294732  0.08460181  0.27253568    -0.44270
C329        C  0.49737190  0.44897812  0.55597860    -0.00680
C330        C  0.99274145  0.48230793  0.57150651    -0.12550
C331        C  0.01591214  0.50229447  0.58438379     0.01560
C332        C  0.04317417  0.49227779  0.60289065    -0.00770
C333        C  0.04756209  0.46183321  0.60140832    -0.12490
C334        C  0.02484714  0.44174810  0.58428434     0.01440
H335        H  0.47018837  0.48656617  0.54774035     0.14420
H336        H  0.06752910  0.45361758  0.61867352     0.14420
C337        C  0.53181208  0.40883434  0.57267094     0.36070
C338        C  0.01231698  0.03180311  0.56738161     0.35980
N339        N  0.53755163  0.38426411  0.57148437    -0.44270
N340        N  0.00672032  0.05640515  0.56765146    -0.44270
C341        C  0.45347374  0.98305358  0.41851735    -0.00680
C342        C  0.48354042  0.98500911  0.43125847    -0.12550
C343        C  0.50369963  0.00205322  0.40297974     0.01560
C344        C  0.49455109  0.01625406  0.35676960    -0.00770
C345        C  0.46428274  0.01434200  0.34298299    -0.12490
C346        C  0.44313735  0.49737447  0.37263461     0.01440
H347        H  0.49204931  0.97154298  0.46162827     0.14420
H348        H  0.45682270  0.02477876  0.30733554     0.14420
C349        C  0.41343410  0.49283323  0.35249908     0.36070
C350        C  0.03013496  0.98933187  0.36278188     0.35980
N351        N  0.38984350  0.48885346  0.33545762    -0.44270
N352        N  0.05285813  0.97863663  0.35714138    -0.44270
C353        C  0.37804918  0.31257404  0.56989019    -0.00680
C354        C  0.36245651  0.29811584  0.52835433    -0.12550
C355        C  0.35829339  0.26741905  0.52633751     0.01560
C356        C  0.37095496  0.24987133  0.56590411    -0.00770
C357        C  0.38760546  0.26463187  0.60652552    -0.12490
C358        C  0.39141840  0.29544882  0.60861960     0.01440
H359        H  0.35276593  0.31111074  0.49771896     0.14420
H360        H  0.39668378  0.25204707  0.63829821     0.14420
C361        C  0.40931099  0.30871242  0.65098496     0.36070
C362        C  0.33855589  0.25614520  0.48525230     0.35980
N363        N  0.42389909  0.31859790  0.68535465    -0.44270
N364        N  0.32193763  0.25018753  0.45131156    -0.44270
C365        C  0.34138914  0.05811951  0.57538231    -0.00680
C366        C  0.33858800  0.04588372  0.52313037    -0.12550
C367        C  0.34253693  0.01559294  0.51212027     0.01560
C368        C  0.34953469  0.99663126  0.55394530    -0.00770
C369        C  0.35175407  0.00895442  0.60599233    -0.12490
C370        C  0.34818027  0.03885457  0.61701902     0.01440
H371        H  0.33341309  0.06000625  0.49062976     0.14420
H372        H  0.35720371  0.99525508  0.63897675     0.14420
C373        C  0.35311047  0.04877983  0.67188196     0.36070
C374        C  0.33923997  0.50466515  0.45518963     0.35980
N375        N  0.35714836  0.05648845  0.71586043    -0.44270
N376        N  0.33640959  0.49586541  0.41155016    -0.44270
C377        C  0.40224711  0.38718246  0.83525027    -0.00680
C378        C  0.43075332  0.38414230  0.81320482    -0.12550
C379        C  0.43493699  0.38367501  0.75744444     0.01560
C380        C  0.41030036  0.38623753  0.72384482    -0.00770
C381        C  0.38178127  0.38487332  0.74571983    -0.12490
C382        C  0.37749928  0.38524064  0.80083400     0.01440
H383        H  0.44992559  0.38540989  0.83918734     0.14420
H384        H  0.36271726  0.38559613  0.71960607     0.14420
C385        C  0.34749334  0.38699537  0.82055269     0.36070
C386        C  0.46460386  0.38336347  0.73598117     0.35980
N387        N  0.32331563  0.38882202  0.83534469    -0.44270
N388        N  0.48837088  0.38298982  0.71865108    -0.44270
C389        C  0.40775601  0.39835355  0.19506143    -0.00680
C390        C  0.38038917  0.40487117  0.21896932    -0.12550
C391        C  0.37715831  0.40749335  0.27457866     0.01560
C392        C  0.40182345  0.40374549  0.30772567    -0.00770
C393        C  0.42883358  0.39553885  0.28354147    -0.12490
C394        C  0.43192374  0.39282835  0.22778062     0.01440
H395        H  0.36161548  0.40910088  0.19375682     0.14420
H396        H  0.44805643  0.39217081  0.30809406     0.14420
C397        C  0.46048967  0.38637151  0.20510618     0.36070
C398        C  0.34836071  0.41418697  0.29605812     0.35980
N399        N  0.48339151  0.38122169  0.18688501    -0.44270
N400        N  0.32523885  0.41949078  0.31316131    -0.44270
C401        C  0.02566920  0.49284289  0.14692907    -0.00680
C402        C  0.01985890  0.49955668  0.09341581    -0.12550
C403        C  0.99625294  0.48565070  0.06448869     0.01560
C404        C  0.97807245  0.46389127  0.08859290    -0.00770
C405        C  0.48770752  0.46155894  0.14031069    -0.12490
C406        C  0.00682793  0.47171805  0.17134086     0.01440
H407        H  0.03340018  0.51619960  0.07423327     0.14420
H408        H  0.47346590  0.44484326  0.15788500     0.14420
C409        C  0.01116707  0.46270781  0.22557268     0.36070
C410        C  0.99153714  0.49428119  0.01037890     0.35980
N411        N  0.01452153  0.45534329  0.26892003    -0.44270
N412        N  0.98821399  0.50167692  0.96708990    -0.44270
C413        C  0.47144201  0.03344037  0.83467467    -0.00680
C414        C  0.45470403  0.51059659  0.80538536    -0.12550
C415        C  0.43148112  0.49532604  0.82907072     0.01560
C416        C  0.42556978  0.00205825  0.88346770    -0.00770
C417        C  0.43731111  0.02764992  0.90878388    -0.12490
C418        C  0.45994966  0.04395519  0.88406238     0.01440
H419        H  0.46201800  0.50322362  0.76602193     0.14420
H420        H  0.43119600  0.03310363  0.94974898     0.14420
C421        C  0.47227283  0.06957064  0.91225803     0.36070
C422        C  0.41698639  0.47134006  0.79935121     0.35980
N423        N  0.48158484  0.09034049  0.93496347    -0.44270
N424        N  0.40521483  0.45246304  0.77493186    -0.44270
C425        C  0.36990894  0.26730731  0.05289131    -0.00680
C426        C  0.35045557  0.28648864  0.07996794    -0.12550
C427        C  0.35057289  0.31649969  0.07125998     0.01560
C428        C  0.37137920  0.32875661  0.03594328    -0.00770
C429        C  0.38993288  0.30956149  0.00639075    -0.12490
C430        C  0.38913068  0.27907576  0.01423258     0.01440
H431        H  0.33477320  0.27819511  0.10882602     0.14420
H432        H  0.40592060  0.31840787  0.97827249     0.14420
C433        C  0.40880207  0.26070191  0.98359169     0.36070
C434        C  0.32905611  0.33402669  0.09950153     0.35980
N435        N  0.42452960  0.24596589  0.95886094    -0.44270
N436        N  0.31179066  0.34803343  0.12205555    -0.44270
C437        C  0.35283776  0.01475189  0.05936465    -0.00680
C438        C  0.37168257  0.03271811  0.02874980    -0.12550
C439        C  0.37090293  0.06333849  0.03346684     0.01560
C440        C  0.35080380  0.07631201  0.06947915    -0.00770
C441        C  0.33265831  0.05804569  0.10143413    -0.12490
C442        C  0.33362395  0.02754561  0.09673256     0.01440
H443        H  0.38718421  0.02289378  0.00124206     0.14420
H444        H  0.31744636  0.06756020  0.13029005     0.14420
C445        C  0.31257569  0.50918812  0.12572597     0.36070
C446        C  0.39021880  0.08067431  0.99991006     0.35980
N447        N  0.29681979  0.49499081  0.15161314    -0.44270
N448        N  0.40569987  0.09454236  0.97295764    -0.44270
C449        C  0.19599119  0.24269021  0.97917516    -0.00680
C450        C  0.21710646  0.26071547  0.00575438    -0.12550
C451        C  0.23297278  0.25064542  0.04824928     0.01560
C452        C  0.22870544  0.22138568  0.06409694    -0.00770
C453        C  0.20675857  0.20340507  0.03874562    -0.12490
C454        C  0.18982442  0.21414989  0.99707199     0.01440
H455        H  0.22101138  0.28315432  0.99339967     0.14420
H456        H  0.20388993  0.18066846  0.04962940     0.14420
C457        C  0.16595471  0.19606848  0.97444567     0.36070
C458        C  0.25522146  0.27045689  0.07168938     0.35980
N459        N  0.14660777  0.18170369  0.95667868    -0.44270
N460        N  0.27267870  0.28719109  0.08910090    -0.44270
C461        C  0.24168471  0.29158211  0.77683451    -0.00680
C462        C  0.24967947  0.30435589  0.72766579    -0.12550
C463        C  0.26550838  0.28851117  0.68752915     0.01560
C464        C  0.27357112  0.25940518  0.69639355    -0.00770
C465        C  0.26654059  0.24769540  0.74648248    -0.12490
C466        C  0.25176334  0.26325636  0.78640558     0.01440
H467        H  0.24294878  0.32639747  0.71996554     0.14420
H468        H  0.27141376  0.22524438  0.75453631     0.14420
C469        C  0.24668055  0.24857217  0.83621582     0.36070
C470        C  0.27305334  0.30238976  0.63810897     0.35980
N471        N  0.24284938  0.23643567  0.87569838    -0.44270
N472        N  0.27938048  0.31354204  0.59856682    -0.44270
C473        C  0.29237840  0.39262495  0.99037052    -0.00680
C474        C  0.26650715  0.40595283  0.00852586    -0.12550
C475        C  0.23905599  0.39669781  0.98770501     0.01560
C476        C  0.23765787  0.37393273  0.94846257    -0.00770
C477        C  0.26304081  0.35896791  0.93371576    -0.12490
C478        C  0.29040464  0.36789403  0.95487976     0.01440
H479        H  0.26791745  0.42484414  0.03599638     0.14420
H480        H  0.26153069  0.34074035  0.90473561     0.14420
C481        C  0.31607450  0.35169375  0.93863628     0.36070
C482        C  0.21295738  0.41205611  0.00427781     0.35980
N483        N  0.33644756  0.33860178  0.92504170    -0.44270
N484        N  0.19202816  0.42441971  0.01729554    -0.44270
C485        C  0.05091073  0.33707298  0.93843644    -0.00680
C486        C  0.04538937  0.36707340  0.93778792    -0.12550
C487        C  0.02135125  0.37851184  0.96493738     0.01560
C488        C  0.00138768  0.35959433  0.99192020    -0.00770
C489        C  0.00571410  0.32937041  0.99030462    -0.12490
C490        C  0.03020205  0.31786252  0.96358326     0.01440
H491        H  0.06085454  0.38198852  0.91835852     0.14420
H492        H  0.48297095  0.33249246  0.97024061     0.14420
C493        C  0.03368708  0.28648322  0.96413716     0.36070
C494        C  0.01841961  0.40999888  0.96572949     0.35980
N495        N  0.03635194  0.26132179  0.96451567    -0.44270
N496        N  0.01645656  0.43523130  0.96583538    -0.44270
C497        C  0.09396698  0.22440205  0.82966676    -0.00680
C498        C  0.08423511  0.20377689  0.86684869    -0.12550
C499        C  0.07428067  0.17599140  0.84962634     0.01560
C500        C  0.07420777  0.16886449  0.79464255    -0.00770
C501        C  0.08093418  0.19008804  0.75727629    -0.12490
C502        C  0.09021648  0.21812973  0.77422054     0.01440
H503        H  0.08616358  0.20858516  0.90946457     0.14420
H504        H  0.07925506  0.18457398  0.71482706     0.14420
C505        C  0.09636593  0.23938959  0.73364822     0.36070
C506        C  0.06617936  0.15477876  0.88916440     0.35980
N507        N  0.10118257  0.25623568  0.70083866    -0.44270
N508        N  0.05976564  0.13813268  0.92149454    -0.44270
C509        C  0.13086302  0.41565902  0.82982936    -0.00680
C510        C  0.13619054  0.42240925  0.77597395    -0.12550
C511        C  0.12296592  0.44642358  0.75311392     0.01560
C512        C  0.10341908  0.46347953  0.78391085    -0.00770
C513        C  0.09793621  0.45673585  0.83728253    -0.12490
C514        C  0.11183886  0.43359830  0.86084631     0.01440
H515        H  0.15065783  0.40891447  0.75159657     0.14420
H516        H  0.08302605  0.47007467  0.86112688     0.14420
C517        C  0.10581036  0.42905607  0.91681879     0.36070
C518        C  0.12874383  0.45242119  0.69766241     0.35980
N519        N  0.10103457  0.42572352  0.96174939    -0.44270
N520        N  0.13329005  0.45726869  0.65319994    -0.44270
C521        C  0.15054277  0.33134001  0.70163784    -0.00680
C522        C  0.17423179  0.33043217  0.66591164    -0.12550
C523        C  0.16926740  0.32606983  0.61165237     0.01560
C524        C  0.13997094  0.32302952  0.59266786    -0.00770
C525        C  0.11605441  0.32487172  0.62826715    -0.12490
C526        C  0.12122245  0.32899518  0.68304478     0.01440
H527        H  0.19669753  0.33132674  0.68083609     0.14420
H528        H  0.09355837  0.32319146  0.61330732     0.14420
C529        C  0.09643099  0.32979281  0.71960426     0.36070
C530        C  0.19468081  0.32292234  0.57692334     0.35980
N531        N  0.07661382  0.33047878  0.74901175    -0.44270
N532        N  0.21517018  0.32017455  0.54956584    -0.44270
C533        C  0.13390024  0.34084317  0.08522844    -0.00680
C534        C  0.13154035  0.31191976  0.10358890    -0.12550
C535        C  0.13598003  0.30571910  0.15670179     0.01560
C536        C  0.14207362  0.32894535  0.19393208    -0.00770
C537        C  0.14248762  0.35811028  0.17641194    -0.12490
C538        C  0.13812539  0.36424467  0.12260775     0.01440
H539        H  0.12788688  0.29338816  0.07584654     0.14420
H540        H  0.14741643  0.37623111  0.20429878     0.14420
C541        C  0.13808089  0.39447979  0.10725686     0.36070
C542        C  0.13654702  0.27506849  0.16995990     0.35980
N543        N  0.13763862  0.41879387  0.09542554    -0.44270
N544        N  0.13731721  0.25049331  0.17999806    -0.44270
C545        C  0.19459188  0.24966554  0.48562933    -0.00680
C546        C  0.18263801  0.24470564  0.53699989    -0.12550
C547        C  0.19638827  0.22595420  0.57251481     0.01560
C548        C  0.22242642  0.21190694  0.55637776    -0.00770
C549        C  0.23368359  0.21716902  0.50459736    -0.12490
C550        C  0.22040025  0.23575546  0.46987802     0.01280
H551        H  0.16257192  0.25548908  0.54933094     0.14420
H552        H  0.25418350  0.20795065  0.49122730     0.14420
C553        C  0.23540586  0.24206543  0.42027185     0.36070
C554        C  0.18358772  0.22174990  0.62471193     0.35980
N555        N  0.24822243  0.24710525  0.38136419    -0.44270
N556        N  0.17323802  0.21830703  0.66652708    -0.44270
C557        C  0.28952345  0.25483842  0.22729317    -0.00680
C558        C  0.26200328  0.24272611  0.24123408    -0.12550
C559        C  0.23964622  0.25993003  0.26104422     0.01560
C560        C  0.24513995  0.29026643  0.27209034    -0.00770
C561        C  0.27327506  0.30265918  0.26059527    -0.12490
C562        C  0.29536755  0.28511571  0.23726620     0.01440
H563        H  0.25659197  0.22002387  0.23163787     0.14420
H564        H  0.27792696  0.32576567  0.26956048     0.14420
C565        C  0.32387855  0.29826640  0.22479621     0.36070
C566        C  0.21075820  0.24560810  0.26679709     0.35980
N567        N  0.34690364  0.30875030  0.21551794    -0.44270
N568        N  0.18780240  0.23398178  0.27151444    -0.44270
C569        C  0.30329487  0.37948614  0.48176034    -0.00680
C570        C  0.27858446  0.39087094  0.50956231    -0.12550
C571        C  0.24933004  0.38290773  0.49544459     0.01560
C572        C  0.24373792  0.36281320  0.45246345    -0.00770
C573        C  0.26837527  0.35099222  0.42502315    -0.12490
C574        C  0.29776168  0.35919513  0.43895445     0.01440
H575        H  0.28197170  0.40650617  0.54272156     0.14420
H576        H  0.26476170  0.33550608  0.39169907     0.14420
C577        C  0.32162275  0.34619130  0.40898337     0.36070
C578        C  0.22559517  0.39536193  0.52664662     0.35980
N579        N  0.34069826  0.33570833  0.38485265    -0.44270
N580        N  0.20661328  0.40531392  0.55179445    -0.44270
C581        C  0.05197324  0.34175010  0.44306852    -0.00680
C582        C  0.03632032  0.32037144  0.47260100    -0.12550
C583        C  0.00851880  0.32614347  0.49488839     0.01560
C584        C  0.99589956  0.35326108  0.48617212    -0.00770
C585        C  0.01088673  0.37383074  0.45418992    -0.12490
C586        C  0.03875419  0.36850854  0.43320168     0.01440
H587        H  0.04653801  0.29981096  0.48093306     0.14420
H588        H  0.00130572  0.39492215  0.44737544     0.14420
C589        C  0.05349699  0.39131688  0.40324020     0.36070
C590        C  0.99346402  0.30419343  0.52621519     0.35980
N591        N  0.06508083  0.40990631  0.37974417    -0.44270
N592        N  0.98131533  0.28658703  0.55124271    -0.44270
C593        C  0.09588894  0.22530880  0.35959377    -0.00680
C594        C  0.08255423  0.22367939  0.30860125    -0.12550
C595        C  0.07388155  0.19676035  0.28381566     0.01560
C596        C  0.07777280  0.17031838  0.31008758    -0.00770
C597        C  0.08941224  0.17173762  0.36230427    -0.12490
C598        C  0.09840676  0.19887385  0.38719763     0.01440
H599        H  0.08011472  0.24356145  0.28656052     0.14420
H600        H  0.09296958  0.15151936  0.38260891     0.14420
C601        C  0.11187786  0.19868306  0.43934816     0.36070
C602        C  0.06186742  0.19675190  0.23039031     0.35980
N603        N  0.12265263  0.19851779  0.48121124    -0.44270
N604        N  0.05230962  0.19670679  0.18754933    -0.44270
C605        C  0.12722213  0.47087767  0.27231843    -0.00680
C606        C  0.11219606  0.44374763  0.26618195    -0.12550
C607        C  0.12440436  0.41815786  0.28463388     0.01560
C608        C  0.15252450  0.41920640  0.30992437    -0.00770
C609        C  0.16869521  0.44605898  0.31216518    -0.12490
C610        C  0.15614199  0.47188607  0.29383043     0.01440
H611        H  0.08994968  0.44283256  0.24993206     0.14420
H612        H  0.18996855  0.44737238  0.33207541     0.14420
C613        C  0.18245131  0.99882752  0.26942188     0.36070
C614        C  0.10648361  0.39133189  0.28036404     0.35980
N615        N  0.19754217  0.01981117  0.27082145    -0.44270
N616        N  0.09202839  0.36993719  0.27705867    -0.44270
O617        O  0.14223441  0.88816730  0.36339128    -0.80660
O618        O  0.12102224  0.77232829  0.33488271    -0.80690
O619        O  0.16288939  0.84627228  0.27113681    -0.80690
O620        O  0.09438230  0.81500638  0.41474128    -0.80640
O621        O  0.15263609  0.79994221  0.26098032    -0.80760
O622        O  0.10293936  0.86186171  0.42827726    -0.80680
O623        O  0.12115311  0.76464518  0.41946619    -0.80660
O624        O  0.18723370  0.88473505  0.33327841    -0.80700
C625        C  0.16265068  0.89768840  0.33379187     1.09030
C626        C  0.11319659  0.75627290  0.37250606     1.08910
C627        C  0.15322077  0.82532765  0.24268957     1.09050
C628        C  0.08496194  0.84018083  0.42266075     1.08930
O629        O  0.14882371  0.84519638  0.49952777    -0.80660
O630        O  0.20629204  0.79628635  0.32698874    -0.80740
O631        O  0.21131144  0.83611408  0.39687553    -0.80680
O632        O  0.17361993  0.79784058  0.46092319    -0.80660
O633        O  0.17506373  0.76414272  0.39777482    -0.80710
O634        O  0.19162686  0.87408639  0.43511273    -0.80670
O635        O  0.12085375  0.80421131  0.50802569    -0.80630
O636        O  0.22082456  0.83704140  0.28851653    -0.80700
Co637      Co  0.14712952  0.86391941  0.42618121     1.51530
Co638      Co  0.16246241  0.78663133  0.33343138     1.51690
Co639      Co  0.18621855  0.83992463  0.33412167     1.51570
Co640      Co  0.13425480  0.80758556  0.43661492     1.51470
O641        O  0.15049475  0.82641774  0.37323838    -1.42600
C642        C  0.13550507  0.82592046  0.52860180     1.08950
C643        C  0.22304082  0.80947620  0.29348566     1.09040
C644        C  0.21411391  0.85828466  0.42701447     1.08980
C645        C  0.18194180  0.77336185  0.44456002     1.08960
O646        O  0.14357365  0.86976968  0.99721975    -0.80660
O647        O  0.20720414  0.79166997  0.84248560    -0.80690
O648        O  0.16403298  0.78197089  0.95683493    -0.80690
O649        O  0.20769491  0.87398525  0.86790575    -0.80640
O650        O  0.17102800  0.75202133  0.88923915    -0.80760
O651        O  0.19143824  0.85053311  0.94002618    -0.80680
O652        O  0.20924978  0.83121182  0.80110664    -0.80660
O653        O  0.13131617  0.82337909  0.99210470    -0.80700
C654        C  0.13609531  0.84650236  0.02057447     1.09030
C655        C  0.21987490  0.80658207  0.80745624     1.08910
C656        C  0.17564983  0.75973807  0.93765217     1.09050
C657        C  0.21096086  0.86683567  0.91628728     1.08930
O658        O  0.14655473  0.88770674  0.89614450    -0.80660
O659        O  0.12541345  0.76714927  0.81127775    -0.80740
O660        O  0.08710092  0.80646547  0.91505180    -0.80680
O661        O  0.16170229  0.84981800  0.78490441    -0.80660
O662        O  0.16181851  0.80193840  0.76158553    -0.80710
O663        O  0.10289817  0.85219396  0.92045075    -0.80670
O664        O  0.15615279  0.87163366  0.81641832    -0.80630
O665        O  0.11547351  0.75669649  0.89332141    -0.80700
Co666      Co  0.14658998  0.84844493  0.92876228     1.51530
Co667      Co  0.16523076  0.78057588  0.82911392     1.51690
Co668      Co  0.12622777  0.79368602  0.93308276     1.51570
Co669      Co  0.17919354  0.84324287  0.85724305     1.51470
O670        O  0.14650264  0.81581203  0.86960829    -1.42600
C671        C  0.14528068  0.89139455  0.84674914     1.08950
C672        C  0.11100024  0.75248810  0.84402459     1.09040
C673        C  0.08177558  0.83330779  0.91773286     1.08980
C674        C  0.15761387  0.82845587  0.75057716     1.08960
O675        O  0.46903027  0.91557757  0.95684207    -0.80660
O676        O  0.32542807  0.92147053  0.04493649    -0.80690
O677        O  0.39507826  0.87047469  0.00125435    -0.80690
O678        O  0.38170504  0.92322655  0.89370064    -0.80640
O679        O  0.36535272  0.87906366  0.07005115    -0.80760
O680        O  0.41600416  0.89649849  0.92722443    -0.80680
O681        O  0.33871265  0.91127077  0.96283007    -0.80660
O682        O  0.45745698  0.87792073  0.00868816    -0.80700
C683        C  0.47481792  0.89025415  0.97438069     1.09030
C684        C  0.32036213  0.90897115  0.00014040     1.08910
C685        C  0.37607926  0.86133253  0.03422807     1.09050
C686        C  0.39895976  0.90206885  0.88937923     1.08930
O687        O  0.42928815  0.95565903  0.91773796    -0.80660
O688        O  0.40052237  0.92777984  0.12288739    -0.80740
O689        O  0.45229155  0.92777062  0.06789610    -0.80680
O690        O  0.34362677  0.97154466  0.00711890    -0.80660
O691        O  0.36366962  0.96722479  0.08702666    -0.80710
O692        O  0.44676881  0.96324734  0.01778288    -0.80670
O693        O  0.39027310  0.98058007  0.94133191    -0.80630
O694        O  0.41846790  0.88571142  0.10304774    -0.80700
Co695      Co  0.43008486  0.92861285  0.97747903     1.51530
Co696      Co  0.36525719  0.92429591  0.07890241     1.51690
Co697      Co  0.42286279  0.90114404  0.02770486     1.51570
Co698      Co  0.36498475  0.94561945  0.95507195     1.51470
O699        O  0.39110475  0.93180989  0.01434782    -1.42600
C700        C  0.41429094  0.97849232  0.91618181     1.08950
C701        C  0.40984126  0.90405018  0.13850086     1.09040
C702        C  0.95017904  0.93787863  0.08126730     1.08980
C703        C  0.35356931  0.98286666  0.05080771     1.08960
O704        O  0.45172871  0.87120902  0.47004768    -0.80660
O705        O  0.33566370  0.90276515  0.54516741    -0.80690
O706        O  0.40390237  0.85358000  0.53390596    -0.80690
O707        O  0.38003895  0.92235665  0.39292234    -0.80640
O708        O  0.37155508  0.86309001  0.59780155    -0.80760
O709        O  0.42220572  0.89826385  0.39494320    -0.80680
O710        O  0.35795696  0.88812862  0.47297150    -0.80660
O711        O  0.46314506  0.85683940  0.55125723    -0.80700
C712        C  0.46853330  0.85768830  0.50142364     1.09030
C713        C  0.33426513  0.89043476  0.49983326     1.08910
C714        C  0.38448479  0.84478001  0.56633150     1.09050
C715        C  0.40094119  0.90860376  0.36800695     1.08930
O716        O  0.44775194  0.93615150  0.45624186    -0.80660
O717        O  0.39845908  0.91427228  0.65161790    -0.80740
O718        O  0.46135514  0.91404111  0.58120543    -0.80680
O719        O  0.35610879  0.95207964  0.49925762    -0.80660
O720        O  0.36526987  0.95110880  0.58739970    -0.80710
O721        O  0.46155702  0.92445117  0.49596827    -0.80670
O722        O  0.40888320  0.96151498  0.45844130    -0.80630
O723        O  0.42578333  0.87608541  0.63472307    -0.80700
Co724      Co  0.42086318  0.90226645  0.47359973     1.51530
Co725      Co  0.36967843  0.90804203  0.59323227     1.51690
Co726      Co  0.43233881  0.88459216  0.55738835     1.51570
Co727      Co  0.38619170  0.92329781  0.47141961     1.51470
O728        O  0.40436118  0.91499289  0.54395619    -1.42600
C729        C  0.43555893  0.95990105  0.44503897     1.08950
C730        C  0.41268607  0.89286017  0.66784028     1.09040
C731        C  0.47287618  0.92796596  0.54375905     1.08980
C732        C  0.35707812  0.96480587  0.54604289     1.08960
O733        O  0.25659550  0.70415863  0.13150755    -0.80660
O734        O  0.36551542  0.62661272  0.06074799    -0.80690
O735        O  0.32210733  0.70760576  0.99691359    -0.80690
O736        O  0.28288496  0.62093310  0.16893276    -0.80640
O737        O  0.33796080  0.66273412  0.99119727    -0.80760
O738        O  0.26405469  0.65075401  0.11857375    -0.80680
O739        O  0.32191639  0.61603073  0.09067006    -0.80660
O740        O  0.27287313  0.70339720  0.04955642    -0.80700
C741        C  0.25221528  0.70768565  0.08175713     1.09030
C742        C  0.34543785  0.60764819  0.07079760     1.08910
C743        C  0.32534760  0.68380799  0.97046631     1.09050
C744        C  0.26068053  0.62763125  0.14282291     1.08930
O745        O  0.27339944  0.67232686  0.22682319    -0.80660
O746        O  0.37207819  0.71365123  0.03349866    -0.80740
O747        O  0.29735840  0.73982170  0.13608205    -0.80680
O748        O  0.36905807  0.64067765  0.16184732    -0.80660
O749        O  0.38714402  0.67851587  0.11889148    -0.80710
O750        O  0.31427958  0.71214278  0.19422912    -0.80670
O751        O  0.32084997  0.66125136  0.22824146    -0.80630
O752        O  0.34999318  0.72895548  0.10183916    -0.80700
Co753      Co  0.29089962  0.67937205  0.15692273     1.51530
Co754      Co  0.36183817  0.67083425  0.05586957     1.51690
Co755      Co  0.31177599  0.71644146  0.07370083     1.51570
Co756      Co  0.32370096  0.63992943  0.15580065     1.51470
O757        O  0.32098107  0.67573870  0.10043198    -1.42600
C758        C  0.29690648  0.66822055  0.25353360     1.08950
C759        C  0.36576617  0.73527798  0.06372774     1.09040
C760        C  0.30419261  0.73639610  0.18355658     1.08980
C761        C  0.39103699  0.65738469  0.14888633     1.08960
O762        O  0.24156528  0.69638770  0.63707851    -0.80660
O763        O  0.33861468  0.60956739  0.54497192    -0.80690
O764        O  0.31195692  0.70441225  0.51270466    -0.80690
O765        O  0.28598081  0.61957136  0.68282140    -0.80640
O766        O  0.31363973  0.65698931  0.49969185    -0.80760
O767        O  0.26204391  0.63990719  0.61798385    -0.80680
O768        O  0.33585071  0.59982356  0.63087046    -0.80660
O769        O  0.26683512  0.68866850  0.56523685    -0.80700
C770        C  0.24383974  0.69899397  0.58669870     1.09030
C771        C  0.33822430  0.59131038  0.58262821     1.08910
C772        C  0.30882109  0.68173307  0.48185380     1.09050
C773        C  0.26248376  0.62175005  0.65458068     1.08930
O774        O  0.27786800  0.67004818  0.71822242    -0.80660
O775        O  0.36305980  0.69726570  0.53890519    -0.80740
O776        O  0.29174501  0.74278332  0.60159619    -0.80680
O777        O  0.37235648  0.64615886  0.67306533    -0.80660
O778        O  0.38469766  0.64730503  0.58695786    -0.80710
O779        O  0.29751854  0.71610959  0.67005529    -0.80670
O780        O  0.32551620  0.66908601  0.72422527    -0.80630
O781        O  0.34622773  0.71667903  0.61325487    -0.80700
Co782      Co  0.28072060  0.67752393  0.63889534     1.51530
Co783      Co  0.34775003  0.65346885  0.54688617     1.51690
Co784      Co  0.30688276  0.70204860  0.59338413     1.51570
Co785      Co  0.32928194  0.63575549  0.67382778     1.51470
O786        O  0.32019868  0.66155941  0.61160068    -1.42600
C787        C  0.30097774  0.67201248  0.74656958     1.08950
C788        C  0.36210100  0.71917145  0.57262070     1.09040
C789        C  0.28985577  0.74049879  0.65220461     1.08980
C790        C  0.39142591  0.64548847  0.63571683     1.08960
O791        O  0.11042430  0.01644772  0.25924281    -0.80660
O792        O  0.08763310  0.62883562  0.26354005    -0.80690
O793        O  0.13245252  0.55353400  0.16756995    -0.80690
O794        O  0.05093690  0.58260312  0.35456966    -0.80640
O795        O  0.12148876  0.59969561  0.18767373    -0.80760
O796        O  0.09348244  0.56377414  0.33031869    -0.80680
O797        O  0.04270597  0.63117964  0.29466350    -0.80660
O798        O  0.11193001  0.51264289  0.22278143    -0.80700
C799        C  0.12137625  0.99868785  0.22418530     1.09030
C800        C  0.06884087  0.64185907  0.29183068     1.08910
C801        C  0.14030474  0.58037801  0.17193387     1.09050
C802        C  0.07726165  0.57594706  0.36570304     1.08930
O803        O  0.04069795  0.52870701  0.33051040    -0.80660
O804        O  0.06922347  0.59357920  0.11930638    -0.80740
O805        O  0.05751525  0.01812802  0.17764360    -0.80680
O806        O  0.00441818  0.59540484  0.22683176    -0.80660
O807        O  0.03551601  0.62709821  0.18930856    -0.80710
O808        O  0.05386775  0.99099248  0.24937569    -0.80670
O809        O  0.00615549  0.55038721  0.28961320    -0.80630
O810        O  0.08140026  0.54736340  0.12597084    -0.80700
Co811      Co  0.07218296  0.53822596  0.27623724     1.51530
Co812      Co  0.07671153  0.60891419  0.19448281     1.51690
Co813      Co  0.09499935  0.55286809  0.20329286     1.51570
Co814      Co  0.02842699  0.58857341  0.28764341     1.51470
O815        O  0.05906409  0.57196819  0.23456626    -1.42600
C816        C  0.01345205  0.53272624  0.32418193     1.08950
C817        C  0.07388536  0.56871785  0.09705162     1.09040
C818        C  0.04514806  0.99650604  0.20219985     1.08980
C819        C  0.00936103  0.61602543  0.19589165     1.08960
O820        O  0.05582067  0.98810316  0.76378038    -0.80660
O821        O  0.08682267  0.62517526  0.75435191    -0.80690
O822        O  0.13750443  0.54849597  0.69109028    -0.80690
O823        O  0.06464013  0.58685173  0.84343672    -0.80640
O824        O  0.12099097  0.59396594  0.68440378    -0.80760
O825        O  0.06608250  0.53893932  0.83306683    -0.80680
O826        O  0.04246890  0.63082141  0.78230835    -0.80660
O827        O  0.09918471  0.00889256  0.74080477    -0.80700
C828        C  0.08368675  0.98704352  0.75901969     1.09030
C829        C  0.06811580  0.64061999  0.77721720     1.08910
C830        C  0.14272371  0.57552458  0.68414202     1.09050
C831        C  0.06878001  0.56221781  0.86285842     1.08930
O832        O  0.01452980  0.52688082  0.75426868    -0.80660
O833        O  0.06643864  0.58691227  0.61861113    -0.80740
O834        O  0.08121657  0.01908330  0.64805976    -0.80680
O835        O  0.00311350  0.59216469  0.73751948    -0.80660
O836        O  0.03177105  0.61879804  0.68291682    -0.80710
O837        O  0.03655450  0.01550536  0.67829606    -0.80670
O838        O  0.01114736  0.55590448  0.82245974    -0.80630
O839        O  0.09566966  0.55007767  0.62385670    -0.80700
Co840      Co  0.05677778  0.52948617  0.75314521     1.51530
Co841      Co  0.07502944  0.60381189  0.68830050     1.51690
Co842      Co  0.09738868  0.55094535  0.70768592     1.51570
Co843      Co  0.03364985  0.58904201  0.79006122     1.51470
O844        O  0.05780768  0.56843649  0.72824287    -1.42600
C845        C  0.49948465  0.54213098  0.81279448     1.08950
C846        C  0.08278514  0.56890790  0.59535977     1.09040
C847        C  0.05446302  0.00874990  0.64289741     1.08980
C848        C  0.00595138  0.60892634  0.69831481     1.08960
C849        C  0.08559631  0.57098853  0.53587371    -0.00680
C850        C  0.07042848  0.59387971  0.51277277    -0.12550
C851        C  0.07024251  0.59782667  0.45803558     0.01560
C852        C  0.08585460  0.57871885  0.42320693    -0.00770
C853        C  0.10373372  0.55759276  0.44609022    -0.12490
C854        C  0.10346843  0.55338650  0.50202230     0.01440
H855        H  0.05747242  0.60871177  0.53744991     0.14420
H856        H  0.11563459  0.54251897  0.42011084     0.14420
C857        C  0.11978721  0.52959262  0.52264299     0.36070
C858        C  0.05169487  0.62062042  0.43924557     0.35980
N859        N  0.13265283  0.51025055  0.53888313    -0.44270
N860        N  0.03635065  0.63864553  0.42506177    -0.44270
C861        C  0.07062581  0.56443438  0.03738764    -0.00680
C862        C  0.08966433  0.54562273  0.00838918    -0.12550
C863        C  0.08976782  0.54401697  0.95165247     0.01560
C864        C  0.07024449  0.56107853  0.92274066    -0.00770
C865        C  0.05009757  0.57824702  0.95195801    -0.12490
C866        C  0.05043922  0.58053734  0.00797446     0.01440
H867        H  0.10546377  0.53313322  0.02998256     0.14420
H868        H  0.03387024  0.59034477  0.93057910     0.14420
C869        C  0.02976235  0.59993377  0.03372490     0.36070
C870        C  0.11121809  0.52622111  0.92423225     0.35980
N871        N  0.51546932  0.61573693  0.05138519    -0.44270
N872        N  0.12869938  0.51215889  0.90242832    -0.44270
C873        C  0.47919117  0.61871955  0.67465574    -0.00680
C874        C  0.47550122  0.64715388  0.65576123    -0.12550
C875        C  0.44714139  0.65666922  0.64204801     0.01560
C876        C  0.42204316  0.63791020  0.64900269    -0.00770
C877        C  0.42601166  0.60929919  0.66539288    -0.12490
C878        C  0.45408256  0.59942129  0.67689782     0.01440
H879        H  0.49449565  0.66218418  0.65332855     0.14420
H880        H  0.40699580  0.59425603  0.66799907     0.14420
C881        C  0.45650877  0.56878817  0.68836899     0.36070
C882        C  0.44417214  0.68581415  0.62236476     0.35980
N883        N  0.45828229  0.54405023  0.69614406    -0.44270
N884        N  0.44184065  0.70915236  0.60632361    -0.44270
C885        C  0.23351806  0.60799243  0.66976199    -0.00680
C886        C  0.22584535  0.57951311  0.65082648    -0.12550
C887        C  0.19656239  0.56824624  0.65515426     0.01560
C888        C  0.17404312  0.58601680  0.67746936    -0.00770
C889        C  0.18193856  0.61415544  0.69709498    -0.12490
C890        C  0.21111882  0.62507566  0.69428421     0.01440
H891        H  0.24253211  0.56637204  0.63115531     0.14420
H892        H  0.16520162  0.62765569  0.71581928     0.14420
C893        C  0.21664967  0.65390217  0.71821538     0.36070
C894        C  0.19025272  0.53876177  0.63468412     0.35980
N895        N  0.21916005  0.67689554  0.73904150    -0.44270
N896        N  0.18546604  0.51501801  0.61854344    -0.44270
C897        C  0.30055228  0.67641189  0.80487353    -0.00680
C898        C  0.31223088  0.70303391  0.82630903    -0.12550
C899        C  0.31910522  0.70630793  0.88052417     0.01560
C900        C  0.31607111  0.68190097  0.91387487    -0.00770
C901        C  0.30411947  0.65524545  0.89251720    -0.12490
C902        C  0.29605109  0.65244505  0.83850482     0.01440
H903        H  0.31742124  0.72099208  0.80014465     0.14420
H904        H  0.30139510  0.63649971  0.91790982     0.14420
C905        C  0.28519850  0.62423258  0.81766470     0.36070
C906        C  0.33082204  0.73455326  0.89975519     0.35980
N907        N  0.27656427  0.60156636  0.80112250    -0.44270
N908        N  0.33993200  0.75731700  0.91493126    -0.44270
C909        C  0.29840479  0.67513492  0.31181191    -0.00680
C910        C  0.27416004  0.66827868  0.34492980    -0.12550
C911        C  0.27641930  0.67175156  0.40082684     0.01560
C912        C  0.30291617  0.68327593  0.42411817    -0.00770
C913        C  0.32679576  0.69058376  0.39091128    -0.12490
C914        C  0.32463619  0.68733230  0.33540247     0.01440
H915        H  0.25398914  0.65884045  0.32736726     0.14420
H916        H  0.34774892  0.69786525  0.40858279     0.14420
C917        C  0.34982704  0.69686927  0.30389285     0.36070
C918        C  0.25195758  0.66173975  0.43349543     0.35980
N919        N  0.36998770  0.70461645  0.27875217    -0.44270
N920        N  0.23234866  0.65360700  0.45960076    -0.44270
C921        C  0.42211385  0.64852202  0.15987048    -0.00680
C922        C  0.42879741  0.61891097  0.15089305    -0.12550
C923        C  0.45772258  0.60907552  0.15611224     0.01560
C924        C  0.48118361  0.62870032  0.17271342    -0.00770
C925        C  0.47487934  0.65865797  0.17960179    -0.12490
C926        C  0.44581376  0.66869188  0.17242262     0.01440
H927        H  0.41132976  0.60329225  0.13856266     0.14420
H928        H  0.49224035  0.67402080  0.19317400     0.14420
C929        C  0.44059082  0.69957364  0.18050165     0.36070
C930        C  0.46270664  0.57833330  0.14448976     0.35980
N931        N  0.43635333  0.72434766  0.18686809    -0.44270
N932        N  0.46668559  0.55373671  0.13514219    -0.44270
C933        C  0.17144196  0.59015349  0.15995171    -0.00680
C934        C  0.19542989  0.57591687  0.18225446    -0.12550
C935        C  0.22485093  0.58674039  0.17582668     0.01560
C936        C  0.23084152  0.61207397  0.14559560    -0.00770
C937        C  0.20677136  0.62505410  0.12098984    -0.12490
C938        C  0.17753784  0.61458721  0.12803203     0.01440
H939        H  0.19109627  0.55694848  0.20649586     0.14420
H940        H  0.21065622  0.64420731  0.09729612     0.14420
C941        C  0.15413434  0.62918208  0.10133083     0.36070
C942        C  0.24819446  0.57181773  0.20187498     0.35980
N943        N  0.13540668  0.64080583  0.07977629    -0.44270
N944        N  0.26685192  0.55981284  0.22289592    -0.44270
C945        C  0.49778459  0.94910328  0.55694825    -0.00680
C946        C  0.99861432  0.98099509  0.54222865    -0.12550
C947        C  0.01885562  0.00098595  0.56712977     0.01560
C948        C  0.04285929  0.99074872  0.59674995    -0.00770
C949        C  0.04753086  0.96045654  0.59608744    -0.12490
C950        C  0.02694057  0.94042606  0.57191198     0.01440
H951        H  0.47077556  0.98681319  0.54869054     0.14420
H952        H  0.06535766  0.95221897  0.61960192     0.14420
C953        C  0.53202391  0.90878313  0.57364562     0.36070
C954        C  0.01020880  0.53329233  0.58365565     0.35980
N955        N  0.53762143  0.88417683  0.57257669    -0.44270
N956        N  0.00560838  0.55809112  0.58261343    -0.44270
C957        C  0.45286533  0.48250210  0.41763766    -0.00680
C958        C  0.48290043  0.48452962  0.43059174    -0.12550
C959        C  0.50302346  0.50176843  0.40268824     0.01560
C960        C  0.49387196  0.51604327  0.35658877    -0.00770
C961        C  0.46364272  0.51407366  0.34258752    -0.12490
C962        C  0.44375510  0.99780713  0.37334774     0.01440
H963        H  0.49142652  0.47098296  0.46080585     0.14420
H964        H  0.45620605  0.52458728  0.30700213     0.14420
C965        C  0.41399736  0.99331496  0.35343806     0.36070
C966        C  0.02622919  0.51777611  0.43589664     0.35980
N967        N  0.39035060  0.98936608  0.33662936    -0.44270
N968        N  0.04827220  0.52260963  0.45798398    -0.44270
C969        C  0.37905306  0.81252263  0.56855559    -0.00680
C970        C  0.36571819  0.79790515  0.52464397    -0.12550
C971        C  0.36238302  0.76713787  0.52165813     0.01560
C972        C  0.37359007  0.74973193  0.56277154    -0.00770
C973        C  0.38829994  0.76466137  0.60560610    -0.12490
C974        C  0.39122558  0.79551516  0.60871041     0.01440
H975        H  0.35714162  0.81081013  0.49278919     0.14420
H976        H  0.39635197  0.75212931  0.63837786     0.14420
C977        C  0.40710884  0.80888902  0.65348150     0.36070
C978        C  0.34496814  0.75551993  0.47759778     0.35980
N979        N  0.42012081  0.81877255  0.68984353    -0.44270
N980        N  0.33025535  0.74927361  0.44106349    -0.44270
C981        C  0.34137722  0.55869715  0.57203181    -0.00680
C982        C  0.33862133  0.54610889  0.51999497    -0.12550
C983        C  0.34248736  0.51571141  0.50957774     0.01560
C984        C  0.34943492  0.49693353  0.55174373    -0.00770
C985        C  0.35157435  0.50958048  0.60357081    -0.12490
C986        C  0.34797332  0.53957285  0.61406094     0.01440
H987        H  0.33354687  0.56004080  0.48716292     0.14420
H988        H  0.35690848  0.49603765  0.63683973     0.14420
C989        C  0.35254918  0.54969843  0.66889903     0.36070
C990        C  0.33938420  0.00486734  0.45751264     0.35980
N991        N  0.35630375  0.55755480  0.71287961    -0.44270
N992        N  0.33667323  0.99632669  0.41369300    -0.44270
C993        C  0.40155439  0.88750711  0.83605171    -0.00680
C994        C  0.42998411  0.88334180  0.81435592    -0.12550
C995        C  0.43434927  0.88246242  0.75860388     0.01560
C996        C  0.40997673  0.88580182  0.72468146    -0.00770
C997        C  0.38137776  0.88538478  0.74631231    -0.12490
C998        C  0.37690982  0.88615481  0.80138075     0.01440
H999        H  0.44906788  0.88402791  0.84054266     0.14420
H1000       H  0.36245199  0.88662638  0.72000500     0.14420
C1001       C  0.34693018  0.88899902  0.82069325     0.36070
C1002       C  0.46400868  0.88081209  0.73745295     0.35980
N1003       N  0.32279159  0.89170981  0.83513496    -0.44270
N1004       N  0.48776521  0.87930094  0.72038526    -0.44270
C1005       C  0.40692986  0.89847853  0.19602726    -0.00680
C1006       C  0.37971243  0.90507499  0.22041310    -0.12550
C1007       C  0.37684938  0.90794019  0.27604991     0.01560
C1008       C  0.40175226  0.90439386  0.30871952    -0.00770
C1009       C  0.42860526  0.89608609  0.28410991    -0.12490
C1010       C  0.43132019  0.89310358  0.22832193     0.01440
H1011       H  0.36076848  0.90918341  0.19553373     0.14420
H1012       H  0.44798275  0.89283117  0.30833244     0.14420
C1013       C  0.45973197  0.88650679  0.20515288     0.36070
C1014       C  0.34816282  0.91462130  0.29805641     0.35980
N1015       N  0.48251380  0.88123029  0.18656178    -0.44270
N1016       N  0.32513103  0.91990205  0.31559371    -0.44270
C1017       C  0.01888468  0.98150943  0.17622555    -0.00680
C1018       C  0.00517616  0.99619582  0.13464541    -0.12550
C1019       C  0.98156680  0.98336215  0.10552826     0.01560
C1020       C  0.97086825  0.95489776  0.11751299    -0.00770
C1021       C  0.48799038  0.96158268  0.14114107    -0.12490
C1022       C  0.00699828  0.95385987  0.19054450     0.01440
H1023       H  0.01323906  0.01788399  0.12381980     0.14420
H1024       H  0.47380201  0.94492141  0.15899542     0.14420
C1025       C  0.01913471  0.93786333  0.23370393     0.36070
C1026       C  0.97022311  0.99940342  0.06153100     0.35980
N1027       N  0.02867316  0.92489384  0.26833075    -0.44270
N1028       N  0.96130658  0.01235502  0.02629821    -0.44270
C1029       C  0.47029728  0.53315857  0.83382966    -0.00680
C1030       C  0.45611364  0.01060490  0.80648250    -0.12550
C1031       C  0.43292636  0.99529673  0.83013300     0.01560
C1032       C  0.42450821  0.50175662  0.88268812    -0.00770
C1033       C  0.43655881  0.52708644  0.90837489    -0.12490
C1034       C  0.45912677  0.54342780  0.88362995     0.01440
H1035       H  0.46361688  0.00304673  0.76734327     0.14420
H1036       H  0.43079850  0.53224470  0.94961794     0.14420
C1037       C  0.47180708  0.56871311  0.91232930     0.36070
C1038       C  0.41885403  0.97099138  0.80062924     0.35980
N1039       N  0.48140254  0.58919751  0.93552194    -0.44270
N1040       N  0.40748763  0.95185357  0.77627125    -0.44270
C1041       C  0.36828992  0.76708677  0.05057870    -0.00680
C1042       C  0.34855830  0.78619018  0.07718398    -0.12550
C1043       C  0.34911989  0.81637562  0.06962943     0.01560
C1044       C  0.37047454  0.82888221  0.03562946    -0.00770
C1045       C  0.38934315  0.80978059  0.00649118    -0.12490
C1046       C  0.38822779  0.77917011  0.01339166     0.01440
H1047       H  0.33231687  0.77768496  0.10481125     0.14420
H1048       H  0.40579071  0.81878236  0.97939021     0.14420
C1049       C  0.40824017  0.76094811  0.98321693     0.36070
C1050       C  0.32747636  0.83382615  0.09767765     0.35980
N1051       N  0.42421761  0.74632020  0.95882503    -0.44270
N1052       N  0.31013340  0.84776823  0.12016404    -0.44270
C1053       C  0.35247544  0.51401453  0.05788111    -0.00680
C1054       C  0.37171136  0.53194774  0.02797602    -0.12550
C1055       C  0.37038814  0.56257823  0.03153387     0.01560
C1056       C  0.34936361  0.57559180  0.06568290    -0.00770
C1057       C  0.33080923  0.55735828  0.09699003    -0.12490
C1058       C  0.33230566  0.52685938  0.09343542     0.01440
H1059       H  0.38788820  0.52205143  0.00187285     0.14420
H1060       H  0.31489135  0.56689082  0.12449746     0.14420
C1061       C  0.31423033  0.00983491  0.12957899     0.36070
C1062       C  0.39012164  0.57987824  0.99868554     0.35980
N1063       N  0.29873062  0.99558730  0.15584976    -0.44270
N1064       N  0.40591388  0.59374992  0.97230255    -0.44270
C1065       C  0.19454853  0.74435913  0.97416202    -0.00680
C1066       C  0.21527698  0.76208934  0.00252525    -0.12550
C1067       C  0.23089506  0.75138166  0.04495513     0.01560
C1068       C  0.22672334  0.72182280  0.05916364    -0.00770
C1069       C  0.20517067  0.70417413  0.03189354    -0.12490
C1070       C  0.18848063  0.71549716  0.99042094     0.01440
H1071       H  0.21912973  0.78476796  0.99156218     0.14420
H1072       H  0.20236751  0.68123255  0.04100024     0.14420
C1073       C  0.16482636  0.69764137  0.96649449     0.36070
C1074       C  0.25275848  0.77093198  0.07023592     0.35980
N1075       N  0.14561398  0.68346080  0.94778971    -0.44270
N1076       N  0.26993084  0.78741979  0.08929564    -0.44270
C1077       C  0.24262377  0.79330424  0.77088784    -0.00680
C1078       C  0.25012926  0.80575507  0.72121196    -0.12550
C1079       C  0.26672211  0.79015983  0.68179503     0.01560
C1080       C  0.27622955  0.76166878  0.69195759    -0.00770
C1081       C  0.26998081  0.75049976  0.74282287    -0.12490
C1082       C  0.25421008  0.76578530  0.78191086     0.01440
H1083       H  0.24231014  0.82725673  0.71243935     0.14420
H1084       H  0.27603441  0.72854532  0.75196799     0.14420
C1085       C  0.24963038  0.75166786  0.83242557     0.36070
C1086       C  0.27337299  0.80358335  0.63157426     0.35980
N1087       N  0.24610787  0.74008057  0.87255534    -0.44270
N1088       N  0.27900162  0.81436463  0.59137337    -0.44270
C1089       C  0.29210441  0.89373978  0.98859208    -0.00680
C1090       C  0.26598683  0.90678878  0.00621374    -0.12550
C1091       C  0.23883136  0.89751751  0.98421359     0.01560
C1092       C  0.23806727  0.87513390  0.94419966    -0.00770
C1093       C  0.26364587  0.86038732  0.93004718    -0.12490
C1094       C  0.29066850  0.86923870  0.95253868     0.01440
H1095       H  0.26700281  0.92547643  0.03418300     0.14420
H1096       H  0.26255454  0.84237001  0.90059162     0.14420
C1097       C  0.31659823  0.85327320  0.93693684     0.36070
C1098       C  0.21240189  0.91244464  0.00048024     0.35980
N1099       N  0.33720370  0.84040060  0.92384292    -0.44270
N1100       N  0.19120522  0.92442751  0.01329809    -0.44270
C1101       C  0.05126539  0.84307027  0.92664358    -0.00680
C1102       C  0.04741816  0.87330373  0.93553718    -0.12550
C1103       C  0.02234420  0.88366700  0.96142710     0.01560
C1104       C  0.99989558  0.86356602  0.97741678    -0.00770
C1105       C  0.00249952  0.83359062  0.96478713    -0.12490
C1106       C  0.02775577  0.82316281  0.93923491     0.01440
H1107       H  0.06492253  0.88892298  0.92542908     0.14420
H1108       H  0.48042350  0.83228786  0.97013285     0.14420
C1109       C  0.02899158  0.79192097  0.92808718     0.36070
C1110       C  0.02123367  0.91483023  0.97382898     0.35980
N1111       N  0.02987522  0.76688708  0.91919241    -0.44270
N1112       N  0.02042423  0.93976528  0.98380643    -0.44270
C1113       C  0.09300174  0.72716586  0.82503335    -0.00680
C1114       C  0.08230162  0.70771758  0.86344598    -0.12550
C1115       C  0.07346948  0.67928875  0.84846374     0.01560
C1116       C  0.07526450  0.67034332  0.79441662    -0.00770
C1117       C  0.08271366  0.69041501  0.75531077    -0.12490
C1118       C  0.09101918  0.71909357  0.76999756     0.01440
H1119       H  0.08278429  0.71393465  0.90567181     0.14420
H1120       H  0.08235164  0.68352221  0.71336290     0.14420
C1121       C  0.09808761  0.73912798  0.72781301     0.36070
C1122       C  0.06480729  0.65937832  0.88976164     0.35980
N1123       N  0.10362864  0.75506021  0.69382544    -0.44270
N1124       N  0.05804241  0.64401126  0.92389037    -0.44270
C1125       C  0.13063890  0.91701390  0.82521944    -0.00680
C1126       C  0.13321743  0.92227609  0.77030692    -0.12550
C1127       C  0.11805928  0.94501202  0.74754436     0.01560
C1128       C  0.09903527  0.96204828  0.77951181    -0.00770
C1129       C  0.09638598  0.95698681  0.83410881    -0.12490
C1130       C  0.11246157  0.93523870  0.85754602     0.01440
H1131       H  0.14714821  0.90868096  0.74503265     0.14420
H1132       H  0.08238158  0.97079938  0.85891708     0.14420
C1133       C  0.10981568  0.93265070  0.91480146     0.36070
C1134       C  0.12205425  0.95008410  0.69133661     0.35980
N1135       N  0.10771808  0.93088886  0.96072450    -0.44270
N1136       N  0.12559638  0.95394872  0.64626615    -0.44270
C1137       C  0.15069082  0.83411937  0.69559140    -0.00680
C1138       C  0.17451143  0.83492854  0.66010271    -0.12550
C1139       C  0.16985371  0.83152595  0.60550928     0.01560
C1140       C  0.14071554  0.82801287  0.58592241    -0.00770
C1141       C  0.11663832  0.82816088  0.62137312    -0.12490
C1142       C  0.12150418  0.83109295  0.67644149     0.01440
H1143       H  0.19690304  0.83629117  0.67533714     0.14420
H1144       H  0.09423916  0.82582816  0.60609526     0.14420
C1145       C  0.09656092  0.82998184  0.71265698     0.36070
C1146       C  0.19546312  0.82916718  0.57108957     0.35980
N1147       N  0.07662134  0.82913067  0.74179759    -0.44270
N1148       N  0.21612233  0.82684830  0.54402907    -0.44270
C1149       C  0.13606471  0.84287029  0.07883701    -0.00680
C1150       C  0.13664675  0.81370906  0.09606985    -0.12550
C1151       C  0.14127432  0.80738176  0.14904341     0.01560
C1152       C  0.14469140  0.83059941  0.18716774    -0.00770
C1153       C  0.14311566  0.85980722  0.17043254    -0.12490
C1154       C  0.13844895  0.86611764  0.11685621     0.01440
H1155       H  0.13512183  0.79526686  0.06759556     0.14420
H1156       H  0.14673808  0.87791318  0.19878542     0.14420
C1157       C  0.13616476  0.89635005  0.10238959     0.36070
C1158       C  0.14510348  0.77692275  0.16125722     0.35980
N1159       N  0.13401255  0.92062955  0.09124113    -0.44270
N1160       N  0.14849114  0.75252270  0.17034040    -0.44270
C1161       C  0.19705682  0.75443784  0.48149133    -0.00680
C1162       C  0.18412379  0.74785498  0.53140096    -0.12550
C1163       C  0.19797029  0.72908880  0.56675517     0.01560
C1164       C  0.22514579  0.71681662  0.55197936    -0.00770
C1165       C  0.23772568  0.72421504  0.50214687    -0.12490
C1166       C  0.22418698  0.74260967  0.46739970     0.01280
H1167       H  0.16309919  0.75716559  0.54247815     0.14420
H1168       H  0.25910379  0.71645440  0.49013981     0.14420
C1169       C  0.23986413  0.75058358  0.41929926     0.36070
C1170       C  0.18390337  0.72272345  0.61709236     0.35980
N1171       N  0.25314575  0.75696392  0.38157733    -0.44270
N1172       N  0.17254165  0.71756102  0.65740647    -0.44270
C1173       C  0.28920006  0.75457826  0.22388465    -0.00680
C1174       C  0.26159675  0.74318955  0.23902050    -0.12550
C1175       C  0.23977121  0.76113198  0.25856361     0.01560
C1176       C  0.24585923  0.79158878  0.26727537    -0.00770
C1177       C  0.27416472  0.80320071  0.25484233    -0.12490
C1178       C  0.29579171  0.78481881  0.23245782     0.01440
H1179       H  0.25568976  0.72045921  0.23042543     0.14420
H1180       H  0.27934117  0.82633015  0.26254433     0.14420
C1181       C  0.32466614  0.79705248  0.21976682     0.36070
C1182       C  0.21081524  0.74736693  0.26662856     0.35980
N1183       N  0.34800174  0.80679581  0.21045518    -0.44270
N1184       N  0.18783198  0.73612588  0.27325571    -0.44270
C1185       C  0.30399036  0.88133380  0.47963295    -0.00680
C1186       C  0.27923543  0.89354463  0.50602751    -0.12550
C1187       C  0.25003345  0.88653095  0.49019742     0.01560
C1188       C  0.24460822  0.86655564  0.44699375    -0.00770
C1189       C  0.26930934  0.85411621  0.42072903    -0.12490
C1190       C  0.29861380  0.86139902  0.43628656     0.01440
H1191       H  0.28257598  0.90903544  0.53942379     0.14420
H1192       H  0.26583198  0.83875025  0.38717806     0.14420
C1193       C  0.32254392  0.84775211  0.40751140     0.36070
C1194       C  0.22616483  0.89967593  0.52002159     0.35980
N1195       N  0.34167718  0.83678043  0.38431452    -0.44270
N1196       N  0.20706460  0.91015610  0.54409288    -0.44270
C1197       C  0.05331061  0.84358950  0.43295354    -0.00680
C1198       C  0.03812286  0.82170518  0.46205098    -0.12550
C1199       C  0.00997416  0.82653422  0.48345550     0.01560
C1200       C  0.99640053  0.85301303  0.47361586    -0.00770
C1201       C  0.01085859  0.87395515  0.44168681    -0.12490
C1202       C  0.03927152  0.86978756  0.42237291     0.01440
H1203       H  0.04900604  0.80159659  0.47109318     0.14420
H1204       H  0.00062236  0.89465104  0.43434653     0.14420
C1205       C  0.05391693  0.89338801  0.39437568     0.36070
C1206       C  0.99569821  0.80445553  0.51560272     0.35980
N1207       N  0.06571117  0.91256091  0.37279272    -0.44270
N1208       N  0.98418324  0.78680196  0.54141152    -0.44270
C1209       C  0.09757497  0.72740298  0.35840874    -0.00680
C1210       C  0.08383727  0.72434345  0.30787430    -0.12550
C1211       C  0.07368968  0.69693293  0.28684003     0.01560
C1212       C  0.07683236  0.67138876  0.31625492    -0.00770
C1213       C  0.08996758  0.67421508  0.36717494    -0.12490
C1214       C  0.09977330  0.70188480  0.38881372     0.01440
H1215       H  0.08196316  0.74342040  0.28344156     0.14420
H1216       H  0.09350204  0.65466872  0.38943012     0.14420
C1217       C  0.11323444  0.70314096  0.44104584     0.36070
C1218       C  0.06170858  0.69535892  0.23335033     0.35980
N1219       N  0.12384506  0.70412405  0.48310556    -0.44270
N1220       N  0.05236496  0.69417133  0.19031568    -0.44270
C1221       C  0.13608712  0.97186059  0.24214995    -0.00680
C1222       C  0.11880773  0.94583887  0.24258259    -0.12550
C1223       C  0.12777726  0.92144750  0.27044341     0.01560
C1224       C  0.15543062  0.92200003  0.29734420    -0.00770
C1225       C  0.17367186  0.94748669  0.29421605    -0.12490
C1226       C  0.16392758  0.97249949  0.26794795     0.01440
H1227       H  0.09718206  0.94516976  0.22382728     0.14420
H1228       H  0.19467015  0.94855433  0.31505481     0.14420
C1229       C  0.17230927  0.49951627  0.30115416     0.36070
C1230       C  0.10758370  0.89622192  0.27163465     0.35980
N1231       N  0.18521807  0.52170950  0.30703329    -0.44270
N1232       N  0.09146317  0.87599451  0.27232311    -0.44270
O1233       O  0.64182323  0.38458676  0.36726495    -0.80660
O1234       O  0.61739713  0.27267977  0.34362564    -0.80690
O1235       O  0.66538418  0.34382647  0.27060582    -0.80690
O1236       O  0.59582658  0.31082067  0.42182195    -0.80640
O1237       O  0.63920902  0.30309558  0.26465594    -0.80760
O1238       O  0.60336833  0.35805031  0.43171158    -0.80680
O1239       O  0.62553729  0.26083729  0.42350218    -0.80660
O1240       O  0.68695751  0.38197771  0.33718464    -0.80700
C1241       C  0.66222431  0.39473339  0.33866996     1.09030
C1242       C  0.61390453  0.25414224  0.37887748     1.08910
C1243       C  0.64664144  0.32764471  0.24621918     1.09050
C1244       C  0.58587775  0.33591564  0.42843630     1.08930
O1245       O  0.64992103  0.34163977  0.50233057    -0.80660
O1246       O  0.69943249  0.29356365  0.29364651    -0.80740
O1247       O  0.71219171  0.33274137  0.39892071    -0.80680
O1248       O  0.67719865  0.29537428  0.45543719    -0.80660
O1249       O  0.67810344  0.26374500  0.38760152    -0.80710
O1250       O  0.69189067  0.37066802  0.43704537    -0.80670
O1251       O  0.62555638  0.29860645  0.50933612    -0.80630
O1252       O  0.72251515  0.33752066  0.29423187    -0.80700
Co1253     Co  0.64742453  0.36055846  0.42906526     1.51530
Co1254     Co  0.65799593  0.28615527  0.32728493     1.51690
Co1255     Co  0.68746241  0.33696686  0.33617257     1.51570
Co1256     Co  0.63697683  0.30415618  0.43793917     1.51470
O1257       O  0.65105681  0.32439546  0.37400492    -1.42600
C1258       C  0.63794404  0.32126182  0.53060739     1.08950
C1259       C  0.72122994  0.31065054  0.27934101     1.09040
C1260       C  0.71457501  0.35503203  0.42934939     1.08980
C1261       C  0.68520000  0.27127301  0.43599903     1.08960
O1262       O  0.64683772  0.36691766  0.99923186    -0.80660
O1263       O  0.70270753  0.28528960  0.84298842    -0.80690
O1264       O  0.65999915  0.27623889  0.96680336    -0.80690
O1265       O  0.70376715  0.37014922  0.86316551    -0.80640
O1266       O  0.66599501  0.24792202  0.89535836    -0.80760
O1267       O  0.69313331  0.34665843  0.93811390    -0.80680
O1268       O  0.70377953  0.32569885  0.80304875    -0.80660
O1269       O  0.62846809  0.32199816  0.00214854    -0.80700
C1270       C  0.63530802  0.34649359  0.02599754     1.09030
C1271       C  0.71486351  0.30127253  0.80877796     1.08910
C1272       C  0.67054075  0.25402446  0.94451225     1.09050
C1273       C  0.71042909  0.36361159  0.91046032     1.08930
O1274       O  0.64710853  0.38385304  0.89863304    -0.80660
O1275       O  0.61895194  0.26282708  0.82147747    -0.80740
O1276       O  0.58516355  0.30559240  0.92239197    -0.80680
O1277       O  0.65607419  0.34410481  0.78803748    -0.80660
O1278       O  0.65555462  0.29601729  0.76638271    -0.80710
O1279       O  0.60423204  0.35012364  0.92652115    -0.80670
O1280       O  0.65112515  0.36623242  0.81850005    -0.80630
O1281       O  0.61050249  0.25399539  0.90495400    -0.80700
Co1282     Co  0.64766570  0.34469987  0.93278824     1.51530
Co1283     Co  0.65989131  0.27544296  0.83463407     1.51690
Co1284     Co  0.62323340  0.29117953  0.94248465     1.51570
Co1285     Co  0.67523260  0.33908481  0.85951163     1.51470
O1286       O  0.64390820  0.31122826  0.87636156    -1.42600
C1287       C  0.64361014  0.38724513  0.84941158     1.08950
C1288       C  0.60424494  0.24972598  0.85627927     1.09040
C1289       C  0.58199633  0.33274753  0.92182885     1.08980
C1290       C  0.65183424  0.32247474  0.75441305     1.08960
O1291       O  0.96061803  0.38862754  0.98225813    -0.80660
O1292       O  0.83470381  0.38797557  0.02161674    -0.80690
O1293       O  0.90537009  0.35027745  0.02247884    -0.80690
O1294       O  0.87189900  0.40731810  0.90569974    -0.80640
O1295       O  0.87033368  0.35941751  0.08147101    -0.80760
O1296       O  0.90924826  0.38119433  0.92641846    -0.80680
O1297       O  0.83353311  0.42915900  0.98156600    -0.80660
O1298       O  0.96162317  0.36292045  0.05548226    -0.80700
C1299       C  0.97338389  0.37067074  0.01195093     1.09030
C1300       C  0.82237054  0.40420454  0.99025710     1.08910
C1301       C  0.88525508  0.34102703  0.05320407     1.09050
C1302       C  0.88890850  0.38658634  0.89438527     1.08930
O1303       O  0.94764546  0.42487144  0.91065078    -0.80660
O1304       O  0.88862769  0.41642150  0.13224199    -0.80740
O1305       O  0.94997275  0.41944796  0.07998082    -0.80680
O1306       O  0.88060299  0.46656558  0.02039761    -0.80660
O1307       O  0.84892933  0.44653999  0.07657146    -0.80710
O1308       O  0.94642304  0.44782540  0.01284862    -0.80670
O1309       O  0.91208046  0.45544836  0.92965240    -0.80630
O1310       O  0.91700839  0.37865359  0.12542629    -0.80700
Co1311     Co  0.92584372  0.41427745  0.97019318     1.51530
Co1312     Co  0.86211409  0.40312170  0.07567198     1.51690
Co1313     Co  0.92712336  0.38559767  0.04838537     1.51570
Co1314     Co  0.87638289  0.43645590  0.96570910     1.51470
O1315       O  0.89477444  0.40957835  0.02341417    -1.42600
C1316       C  0.93518606  0.44851900  0.90296435     1.08950
C1317       C  0.90361076  0.39754520  0.15389497     1.09040
C1318       C  0.45933297  0.45369551  0.05639871     1.08980
C1319       C  0.86173955  0.46943438  0.05685612     1.08960
O1320       O  0.95172088  0.37746294  0.47908126    -0.80660
O1321       O  0.83306862  0.40634626  0.55072765    -0.80690
O1322       O  0.90274942  0.35735061  0.53934602    -0.80690
O1323       O  0.87793616  0.42651960  0.40471120    -0.80640
O1324       O  0.86843815  0.36537159  0.60067483    -0.80760
O1325       O  0.92127679  0.40434384  0.40664797    -0.80680
O1326       O  0.85719376  0.39077802  0.48177726    -0.80660
O1327       O  0.96165314  0.36046786  0.55894610    -0.80700
C1328       C  0.96783022  0.36264799  0.50956664     1.09030
C1329       C  0.83280217  0.39284433  0.50646052     1.08910
C1330       C  0.88237784  0.34778503  0.56915551     1.09050
C1331       C  0.89936357  0.41361523  0.38022140     1.08930
O1332       O  0.94604603  0.44233679  0.46831863    -0.80660
O1333       O  0.89444252  0.41524786  0.66026097    -0.80740
O1334       O  0.95975684  0.41729190  0.59207694    -0.80680
O1335       O  0.85361949  0.45492634  0.50922970    -0.80660
O1336       O  0.86214547  0.45396666  0.59740628    -0.80710
O1337       O  0.95967707  0.43022647  0.50794937    -0.80670
O1338       O  0.90597322  0.46577457  0.46853083    -0.80630
O1339       O  0.92240556  0.37776042  0.64196608    -0.80700
Co1340     Co  0.91991502  0.40747383  0.48455705     1.51530
Co1341     Co  0.86654570  0.41057978  0.60043673     1.51690
Co1342     Co  0.93062063  0.38819637  0.56603741     1.51570
Co1343     Co  0.88440245  0.42692908  0.48179343     1.51470
O1344       O  0.90235378  0.41889466  0.55423071    -1.42600
C1345       C  0.93274494  0.46513638  0.45521971     1.08950
C1346       C  0.90759634  0.39290995  0.67527238     1.09040
C1347       C  0.97135117  0.43205839  0.55554556     1.08980
C1348       C  0.85444168  0.46780563  0.55581432     1.08960
O1349       O  0.74680892  0.19477694  0.13259222    -0.80660
O1350       O  0.84307661  0.10991098  0.05175041    -0.80690
O1351       O  0.82560923  0.20538664  0.01813062    -0.80690
O1352       O  0.78669427  0.11838515  0.18103923    -0.80640
O1353       O  0.82483518  0.15845613  0.00217062    -0.80760
O1354       O  0.76918771  0.14006043  0.11179536    -0.80680
O1355       O  0.83871313  0.09783194  0.13681186    -0.80660
O1356       O  0.77624997  0.19329457  0.06323865    -0.80700
C1357       C  0.75118227  0.19947094  0.08329331     1.09030
C1358       C  0.84143750  0.09085015  0.08773049     1.08910
C1359       C  0.82106218  0.18372365  0.98528880     1.09050
C1360       C  0.76579806  0.12130012  0.14708292     1.08930
O1361       O  0.77791718  0.16905536  0.21791820    -0.80660
O1362       O  0.87399203  0.19496832  0.05378648    -0.80740
O1363       O  0.80594407  0.24245620  0.10220415    -0.80680
O1364       O  0.87382255  0.14291580  0.18688451    -0.80660
O1365       O  0.88945376  0.14326261  0.10248623    -0.80710
O1366       O  0.79957691  0.21724917  0.17376401    -0.80670
O1367       O  0.82492166  0.16638356  0.23189959    -0.80630
O1368       O  0.85504559  0.21078206  0.12796184    -0.80700
Co1369     Co  0.78553715  0.17750011  0.13886469     1.51530
Co1370     Co  0.85551118  0.15232034  0.05656053     1.51690
Co1371     Co  0.81618193  0.20153081  0.09871487     1.51570
Co1372     Co  0.83060980  0.13357431  0.18024123     1.51470
O1373       O  0.82539618  0.16059820  0.11745284    -1.42600
C1374       C  0.79961598  0.17130561  0.25019645     1.08950
C1375       C  0.87213808  0.21548140  0.08986429     1.09040
C1376       C  0.79842828  0.24183559  0.15078664     1.08980
C1377       C  0.89425217  0.14140016  0.15201759     1.08960
O1378       O  0.73985502  0.19857944  0.64012269    -0.80660
O1379       O  0.83569721  0.11188486  0.55025212    -0.80690
O1380       O  0.80762046  0.20508288  0.51248548    -0.80690
O1381       O  0.78524242  0.12297773  0.69294279    -0.80640
O1382       O  0.81017503  0.15785756  0.50092113    -0.80760
O1383       O  0.75964313  0.14161212  0.62854678    -0.80680
O1384       O  0.83428107  0.10312172  0.63693390    -0.80660
O1385       O  0.76425756  0.18809833  0.56851123    -0.80700
C1386       C  0.74108849  0.19838110  0.58910051     1.09030
C1387       C  0.83594334  0.09415599  0.58869969     1.08910
C1388       C  0.80498405  0.18227869  0.48178385     1.09050
C1389       C  0.76102728  0.12424040  0.66630003     1.08930
O1390       O  0.77728334  0.17449057  0.72629876    -0.80660
O1391       O  0.85933584  0.19948477  0.53779329    -0.80740
O1392       O  0.78762149  0.24386507  0.60231773    -0.80680
O1393       O  0.87133219  0.15018913  0.67519692    -0.80660
O1394       O  0.88201615  0.15022946  0.58816703    -0.80710
O1395       O  0.79711845  0.21831425  0.67086213    -0.80670
O1396       O  0.82501613  0.17313132  0.73154925    -0.80630
O1397       O  0.84295551  0.22007822  0.61122655    -0.80700
Co1398     Co  0.77904357  0.17962339  0.64483985     1.51530
Co1399     Co  0.84458298  0.15560413  0.54903514     1.51690
Co1400     Co  0.80385120  0.20355519  0.59401401     1.51570
Co1401     Co  0.82825643  0.13947431  0.67968621     1.51470
O1402       O  0.81802599  0.16394962  0.61545837    -1.42600
C1403       C  0.80062066  0.17678828  0.75476185     1.08950
C1404       C  0.85813141  0.22214382  0.56980198     1.09040
C1405       C  0.78821333  0.24220841  0.65318372     1.08980
C1406       C  0.88964897  0.14876163  0.63656084     1.08960
O1407       O  0.59598389  0.50897769  0.30680818    -0.80660
O1408       O  0.58830140  0.12907109  0.26579399    -0.80690
O1409       O  0.63544944  0.05458463  0.17115414    -0.80690
O1410       O  0.55020510  0.08391906  0.35552817    -0.80640
O1411       O  0.62376596  0.10081457  0.19035818    -0.80760
O1412       O  0.59412047  0.06742661  0.33392706    -0.80680
O1413       O  0.54266344  0.13152885  0.29329132    -0.80660
O1414       O  0.61407594  0.01569206  0.22568663    -0.80700
C1415       C  0.61295210  0.50099130  0.26930077     1.09030
C1416       C  0.56899269  0.14176520  0.29336016     1.08910
C1417       C  0.64311074  0.08135520  0.17683301     1.09050
C1418       C  0.57641141  0.07792946  0.36877195     1.08930
O1419       O  0.54361339  0.02988591  0.32986477    -0.80660
O1420       O  0.57190517  0.09555745  0.11932732    -0.80740
O1421       O  0.57310542  0.52816386  0.15744692    -0.80680
O1422       O  0.50601832  0.09485761  0.22342362    -0.80660
O1423       O  0.53673560  0.12799791  0.18947461    -0.80710
O1424       O  0.55233482  0.51228697  0.23000923    -0.80670
O1425       O  0.50804702  0.05011115  0.28883556    -0.80630
O1426       O  0.58532144  0.04989768  0.12610195    -0.80700
Co1427     Co  0.57549512  0.04069333  0.27838027     1.51530
Co1428     Co  0.57843740  0.11008767  0.19557589     1.51690
Co1429     Co  0.59795784  0.05607082  0.20419393     1.51570
Co1430     Co  0.52909486  0.08889429  0.28644149     1.51470
O1431       O  0.56096278  0.07284786  0.23509118    -1.42600
C1432       C  0.51626736  0.03250652  0.32296667     1.08950
C1433       C  0.57763688  0.07102406  0.09676922     1.09040
C1434       C  0.55350569  0.51187101  0.17962164     1.08980
C1435       C  0.51050604  0.11658333  0.19469011     1.08960
O1436       O  0.55990675  0.48795602  0.78098284    -0.80660
O1437       O  0.57415142  0.12725311  0.77244971    -0.80690
O1438       O  0.63454234  0.04940306  0.69047281    -0.80690
O1439       O  0.57480477  0.08411624  0.83490995    -0.80640
O1440       O  0.62031937  0.09536247  0.70948462    -0.80760
O1441       O  0.56678561  0.03708380  0.83727453    -0.80680
O1442       O  0.53325895  0.12433845  0.82281022    -0.80660
O1443       O  0.59984869  0.50770910  0.73997001    -0.80700
C1444       C  0.58679799  0.48679322  0.76654856     1.09030
C1445       C  0.55430108  0.13944096  0.80265773     1.08910
C1446       C  0.64115264  0.07644311  0.69889427     1.09050
C1447       C  0.57444955  0.06105279  0.86103086     1.08930
O1448       O  0.51307924  0.02477252  0.78159646    -0.80660
O1449       O  0.57618522  0.09194676  0.62491038    -0.80740
O1450       O  0.57760399  0.52127186  0.64677585    -0.80680
O1451       O  0.50727728  0.09527244  0.74056464    -0.80660
O1452       O  0.53347271  0.11872356  0.68144506    -0.80710
O1453       O  0.53797539  0.50895649  0.69276979    -0.80670
O1454       O  0.51332153  0.06651107  0.82824829    -0.80630
O1455       O  0.59049959  0.04656046  0.62639303    -0.80700
Co1456     Co  0.55452754  0.02567898  0.76064368     1.51530
Co1457     Co  0.57434035  0.10403551  0.70044017     1.51690
Co1458     Co  0.59434714  0.04892514  0.70833951     1.51570
Co1459     Co  0.54180977  0.08964469  0.78423408     1.51470
O1460       O  0.55515413  0.06339967  0.72775683    -1.42600
C1461       C  0.99668325  0.03565555  0.79602168     1.08950
C1462       C  0.58401967  0.06917392  0.59991809     1.09040
C1463       C  0.55254803  0.50706231  0.65019128     1.08980
C1464       C  0.50835470  0.11053758  0.69986060     1.08960
C1465       C  0.58392098  0.07029530  0.54006220    -0.00680
C1466       C  0.56657980  0.09185089  0.51772084    -0.12550
C1467       C  0.56626962  0.09653738  0.46294791     0.01560
C1468       C  0.58316406  0.07897076  0.42735839    -0.00770
C1469       C  0.60162375  0.05809935  0.44943903    -0.12490
C1470       C  0.60207695  0.05362737  0.50523385     0.01440
H1471       H  0.55273582  0.10535631  0.54335474     0.14420
H1472       H  0.61452675  0.04416386  0.42296561     0.14420
C1473       C  0.62131278  0.03197949  0.52550500     0.36070
C1474       C  0.54767205  0.11942937  0.44475388     0.35980
N1475       N  0.63676886  0.01459451  0.54169714    -0.44270
N1476       N  0.53261045  0.13768892  0.43057292    -0.44270
C1477       C  0.57556393  0.06694575  0.03648609    -0.00680
C1478       C  0.59494262  0.04807014  0.00849788    -0.12550
C1479       C  0.59556024  0.04593046  0.95173771     0.01560
C1480       C  0.57679016  0.06306950  0.92125526    -0.00770
C1481       C  0.55710718  0.08135280  0.94926413    -0.12490
C1482       C  0.55604405  0.08314802  0.00566780     0.01440
H1483       H  0.61025803  0.03547000  0.03097565     0.14420
H1484       H  0.54175104  0.09377339  0.92664249     0.14420
C1485       C  0.53360798  0.10073292  0.03091750     0.36070
C1486       C  0.61671279  0.02720436  0.92570603     0.35980
N1487       N  0.00802861  0.09700280  0.05530918    -0.44270
N1488       N  0.63397518  0.01242807  0.90498016    -0.44270
C1489       C  0.97686829  0.11795722  0.66967954    -0.00680
C1490       C  0.97418058  0.14646787  0.65046337    -0.12550
C1491       C  0.94608087  0.15730291  0.63833646     0.01560
C1492       C  0.92022413  0.13996626  0.64781461    -0.00770
C1493       C  0.92316918  0.11117864  0.66395990    -0.12490
C1494       C  0.95086225  0.09982876  0.67338998     0.01440
H1495       H  0.99378150  0.16057750  0.64660609     0.14420
H1496       H  0.90354168  0.09713117  0.66810146     0.14420
C1497       C  0.95167031  0.06912635  0.68598117     0.36070
C1498       C  0.94431314  0.18622909  0.61722312     0.35980
N1499       N  0.95189967  0.04447711  0.69560770    -0.44270
N1500       N  0.94318672  0.20935267  0.59974730    -0.44270
C1501       C  0.73246091  0.11002980  0.68398015    -0.00680
C1502       C  0.72519183  0.08097913  0.66779870    -0.12550
C1503       C  0.69613746  0.06911167  0.67380256     0.01560
C1504       C  0.67324834  0.08656804  0.69629649    -0.00770
C1505       C  0.68105567  0.11516332  0.71437863    -0.12490
C1506       C  0.70991515  0.12693364  0.70845944     0.01440
H1507       H  0.74193525  0.06788991  0.64816991     0.14420
H1508       H  0.66428339  0.12885483  0.73240201     0.14420
C1509       C  0.71498401  0.15682239  0.72773354     0.36070
C1510       C  0.69052373  0.03935767  0.65407465     0.35980
N1511       N  0.71747093  0.18072852  0.74454935    -0.44270
N1512       N  0.68622604  0.01546952  0.63825291    -0.44270
C1513       C  0.80037884  0.18225204  0.81451893    -0.00680
C1514       C  0.81801549  0.20542867  0.83745829    -0.12550
C1515       C  0.82315913  0.20800571  0.89327910     0.01560
C1516       C  0.81154118  0.18644483  0.92776092    -0.00770
C1517       C  0.79283898  0.16406381  0.90486880    -0.12490
C1518       C  0.78704432  0.16196728  0.84943680     0.01440
H1519       H  0.82859986  0.22117522  0.81136324     0.14420
H1520       H  0.78346384  0.14731366  0.93031838     0.14420
C1521       C  0.76937181  0.13721337  0.82902383     0.36070
C1522       C  0.84177922  0.23209636  0.91333367     0.35980
N1523       N  0.75529667  0.11717307  0.81315756    -0.44270
N1524       N  0.85646620  0.25178715  0.92878595    -0.44270
C1525       C  0.79682917  0.17882867  0.30877386    -0.00680
C1526       C  0.77591131  0.16368325  0.34015967    -0.12550
C1527       C  0.77753560  0.16508115  0.39659433     0.01560
C1528       C  0.79903966  0.18363093  0.42305730    -0.00770
C1529       C  0.81899547  0.19975124  0.39158068    -0.12490
C1530       C  0.81863782  0.19691053  0.33548110     0.01440
H1531       H  0.75977647  0.14887489  0.32066782     0.14420
H1532       H  0.83671184  0.21263175  0.41093816     0.14420
C1533       C  0.84283932  0.21055672  0.30663667     0.36070
C1534       C  0.75782951  0.14608288  0.42630963     0.35980
N1535       N  0.86280523  0.22052661  0.28364432    -0.44270
N1536       N  0.74203990  0.13087390  0.45021512    -0.44270
C1537       C  0.92453026  0.13414200  0.16860785    -0.00680
C1538       C  0.92821496  0.10699597  0.19190912    -0.12550
C1539       C  0.95643405  0.09627623  0.20084432     0.01560
C1540       C  0.98218792  0.11348343  0.18831625    -0.00770
C1541       C  0.97829557  0.14095408  0.16533802    -0.12490
C1542       C  0.94988399  0.15109520  0.15473554     0.01440
H1543       H  0.90880662  0.09334631  0.20076307     0.14420
H1544       H  0.99747963  0.15460865  0.15539769     0.14420
C1545       C  0.94725212  0.17913296  0.13026841     0.36070
C1546       C  0.95775840  0.06686865  0.22036585     0.35980
N1547       N  0.94520834  0.20164497  0.11074154    -0.44270
N1548       N  0.95833021  0.04313656  0.23533961    -0.44270
C1549       C  0.67461481  0.09040169  0.16820041    -0.00680
C1550       C  0.69729251  0.07703722  0.19620078    -0.12550
C1551       C  0.72731260  0.08580603  0.18950644     0.01560
C1552       C  0.73518149  0.10781396  0.15294608    -0.00770
C1553       C  0.71218995  0.12000247  0.12340899    -0.12490
C1554       C  0.68242279  0.11182371  0.13111440     0.01440
H1555       H  0.69146378  0.06017245  0.22431511     0.14420
H1556       H  0.71720583  0.13681193  0.09476640     0.14420
C1557       C  0.66026131  0.12529063  0.09936971     0.36070
C1558       C  0.74935731  0.07194449  0.22069844     0.35980
N1559       N  0.64248443  0.13597215  0.07387659    -0.44270
N1560       N  0.76698647  0.06078529  0.24580384    -0.44270
C1561       C  0.99710140  0.45208973  0.56864286    -0.00680
C1562       C  0.49148531  0.47904437  0.56047206    -0.12550
C1563       C  0.51218538  0.49935223  0.58319330     0.01560
C1564       C  0.53860334  0.48961652  0.60551390    -0.00770
C1565       C  0.54510967  0.45978097  0.59931861    -0.12490
C1566       C  0.52486230  0.43953234  0.57462227     0.01440
H1567       H  0.97097286  0.49044014  0.56316132     0.14420
H1568       H  0.56483161  0.45184389  0.61781927     0.14420
C1569       C  0.02944850  0.41069815  0.58832933     0.36070
C1570       C  0.50600852  0.03015700  0.58696122     0.35980
N1571       N  0.03305808  0.38585059  0.59245073    -0.44270
N1572       N  0.50085121  0.05487115  0.58886822    -0.44270
C1573       C  0.95410382  0.99021920  0.42021127    -0.00680
C1574       C  0.98261610  0.98224086  0.40400092    -0.12550
C1575       C  0.00113450  0.00031870  0.37366995     0.01560
C1576       C  0.99181465  0.02804999  0.35761465    -0.00770
C1577       C  0.96374970  0.03706609  0.37568442    -0.12490
C1578       C  0.94076222  0.49731454  0.37404163     0.01440
H1579       H  0.99085146  0.96110443  0.41455696     0.14420
H1580       H  0.95626943  0.05844299  0.36491990     0.14420
C1581       C  0.91225414  0.48891644  0.35171685     0.36070
C1582       C  0.53367706  0.00369059  0.42288141     0.35980
N1583       N  0.88955753  0.48220462  0.33306436    -0.44270
N1584       N  0.55746293  0.00457220  0.43981257    -0.44270
C1585       C  0.87682580  0.31536222  0.56847532    -0.00680
C1586       C  0.85563620  0.30276703  0.53370861    -0.12550
C1587       C  0.85146027  0.27208915  0.52784259     0.01560
C1588       C  0.86886987  0.25271989  0.55753071    -0.00770
C1589       C  0.89075320  0.26570044  0.59118677    -0.12490
C1590       C  0.89529049  0.29641108  0.59587346     0.01440
H1591       H  0.84211134  0.31710061  0.51093249     0.14420
H1592       H  0.90352481  0.25180231  0.61606077     0.14420
C1593       C  0.91895473  0.30772712  0.62978207     0.36070
C1594       C  0.82804528  0.26233379  0.49215223     0.35980
N1595       N  0.93830716  0.31603679  0.65690740    -0.44270
N1596       N  0.80880614  0.25710362  0.46264011    -0.44270
C1597       C  0.83918435  0.06159911  0.57851209    -0.00680
C1598       C  0.83394145  0.04862122  0.52738962    -0.12550
C1599       C  0.83803501  0.01832891  0.51674334     0.01560
C1600       C  0.84824227  0.00018405  0.55750528    -0.00770
C1601       C  0.85265245  0.01313563  0.60867861    -0.12490
C1602       C  0.84833507  0.04298911  0.61956699     0.01440
H1603       H  0.82660633  0.06215584  0.49547223     0.14420
H1604       H  0.86031477  0.99998252  0.64090225     0.14420
C1605       C  0.85467358  0.05355832  0.67356707     0.36070
C1606       C  0.83911260  0.50729543  0.46506359     0.35980
N1607       N  0.85975132  0.06170054  0.71696612    -0.44270
N1608       N  0.83745426  0.49847139  0.42124513    -0.44270
C1609       C  0.88953282  0.37454744  0.83873216    -0.00680
C1610       C  0.91739216  0.36750832  0.81696558    -0.12550
C1611       C  0.92363135  0.37152187  0.76260250     0.01560
C1612       C  0.90175961  0.38272391  0.72976377    -0.00770
C1613       C  0.87282644  0.38501065  0.74960789    -0.12490
C1614       C  0.86640841  0.38046720  0.80331867     0.01440
H1615       H  0.93535456  0.36225871  0.84324613     0.14420
H1616       H  0.85533633  0.39167312  0.72346341     0.14420
C1617       C  0.83646746  0.38474613  0.82165749     0.36070
C1618       C  0.95315463  0.36663617  0.74276584     0.35980
N1619       N  0.81238135  0.38836290  0.83558296    -0.44270
N1620       N  0.97677962  0.36266437  0.72664431    -0.44270
C1621       C  0.90281883  0.39733396  0.21187197    -0.00680
C1622       C  0.87559687  0.40326714  0.23652618    -0.12550
C1623       C  0.87372477  0.40879098  0.29127915     0.01560
C1624       C  0.89965426  0.40854045  0.32215205    -0.00770
C1625       C  0.92675028  0.40140450  0.29746968    -0.12490
C1626       C  0.92844358  0.39551105  0.24263377     0.01440
H1627       H  0.85571901  0.40419820  0.21251968     0.14420
H1628       H  0.94685264  0.40076872  0.32085316     0.14420
C1629       C  0.95674380  0.38901413  0.21878111     0.36070
C1630       C  0.84495066  0.41427385  0.31421168     0.35980
N1631       N  0.97940215  0.38372772  0.19968416    -0.44270
N1632       N  0.82188281  0.41864087  0.33250063    -0.44270
C1633       C  0.53058296  0.49521541  0.14759866    -0.00680
C1634       C  0.52525573  0.50366777  0.09503629    -0.12550
C1635       C  0.50146216  0.49153973  0.06529356     0.01560
C1636       C  0.48223659  0.47032249  0.08804263    -0.00770
C1637       C  0.98349917  0.45798285  0.14254513    -0.12490
C1638       C  0.51153040  0.47360122  0.17005186     0.01440
H1639       H  0.53945520  0.52015621  0.07701952     0.14420
H1640       H  0.96974787  0.44176796  0.16249099     0.14420
C1641       C  0.51607392  0.46272462  0.22293155     0.36070
C1642       C  0.49842529  0.50029400  0.01073707     0.35980
N1643       N  0.51965126  0.45389668  0.26520793    -0.44270
N1644       N  0.49647445  0.50728586  0.96689641    -0.44270
C1645       C  0.97235947  0.01802365  0.81729389    -0.00680
C1646       C  0.98579192  0.48354013  0.80470884    -0.12550
C1647       C  0.97078249  0.46180982  0.83131557     0.01560
C1648       C  0.93877559  0.97944300  0.87773053    -0.00770
C1649       C  0.93281228  0.00942595  0.88083385    -0.12490
C1650       C  0.95036541  0.02913969  0.85176871     0.01440
H1651       H  0.00357244  0.47723263  0.77786907     0.14420
H1652       H  0.91689850  0.01760327  0.90979124     0.14420
C1653       C  0.94652944  0.06028056  0.85976154     0.36070
C1654       C  0.98073899  0.43216345  0.82321021     0.35980
N1655       N  0.94353286  0.08526676  0.86617611    -0.44270
N1656       N  0.98955121  0.40870481  0.81781981    -0.44270
C1657       C  0.88090623  0.24719716  0.08211526    -0.00680
C1658       C  0.86807335  0.26795157  0.11762998    -0.12550
C1659       C  0.86712864  0.29768452  0.10660795     0.01560
C1660       C  0.88229499  0.30866258  0.06180308    -0.00770
C1661       C  0.89753118  0.28846422  0.02827977    -0.12490
C1662       C  0.89653286  0.25797597  0.03756980     0.01440
H1663       H  0.85686520  0.26076737  0.15336417     0.14420
H1664       H  0.91002317  0.29640139  0.99429893     0.14420
C1665       C  0.91208736  0.23845124  0.00159286     0.36070
C1666       C  0.84962377  0.31613994  0.14164016     0.35980
N1667       N  0.92467473  0.22279481  0.97285276    -0.44270
N1668       N  0.83540541  0.33125877  0.16868465    -0.44270
C1669       C  0.85200477  0.99788531  0.05693534    -0.00680
C1670       C  0.86403409  0.01830877  0.02123473    -0.12550
C1671       C  0.86029612  0.04854353  0.02934129     0.01560
C1672       C  0.84359862  0.05897597  0.07354810    -0.00770
C1673       C  0.83104402  0.03835564  0.10861355    -0.12490
C1674       C  0.83519723  0.00815467  0.10085950     0.01440
H1675       H  0.87720757  0.01063290  0.98754574     0.14420
H1676       H  0.81810303  0.04586829  0.14271489     0.14420
C1677       C  0.80948991  0.48840035  0.12467101     0.36070
C1678       C  0.87541871  0.06823331  0.99347381     0.35980
N1679       N  0.79362463  0.47148826  0.14442973    -0.44270
N1680       N  0.88771281  0.08393878  0.96482438    -0.44270
C1681       C  0.68992942  0.23659311  0.97615889    -0.00680
C1682       C  0.71957857  0.24506128  0.97516534    -0.12550
C1683       C  0.73950381  0.23328906  0.00968035     0.01560
C1684       C  0.72960618  0.21273814  0.04798338    -0.00770
C1685       C  0.69936723  0.20476869  0.05022466    -0.12490
C1686       C  0.67940086  0.21666793  0.01441732     0.01440
H1687       H  0.72706277  0.26208827  0.94837510     0.14420
H1688       H  0.69145361  0.18925360  0.07938707     0.14420
C1689       C  0.64831946  0.20873769  0.01805819     0.36070
C1690       C  0.76945757  0.24486484  0.00558816     0.35980
N1691       N  0.62336901  0.20245026  0.02084627    -0.44270
N1692       N  0.79263886  0.25573873  0.99937702    -0.44270
C1693       C  0.73878426  0.29012351  0.77292816    -0.00680
C1694       C  0.74660482  0.30451744  0.72514855    -0.12550
C1695       C  0.76419634  0.29071865  0.68515221     0.01560
C1696       C  0.77540088  0.26288209  0.69417125    -0.00770
C1697       C  0.77095703  0.25118443  0.74509909    -0.12490
C1698       C  0.75209580  0.26333643  0.78273535     0.01440
H1699       H  0.73813474  0.32595108  0.71806382     0.14420
H1700       H  0.78034574  0.23064394  0.75492913     0.14420
C1701       C  0.74537171  0.24570682  0.82844660     0.36070
C1702       C  0.77123292  0.30561872  0.63656068     0.35980
N1703       N  0.74026319  0.23011227  0.86307575    -0.44270
N1704       N  0.77756814  0.31756972  0.59783153    -0.44270
C1705       C  0.79428492  0.39413559  0.96670214    -0.00680
C1706       C  0.77116355  0.41377931  0.96447742    -0.12550
C1707       C  0.74320320  0.40392534  0.94723268     0.01560
C1708       C  0.73855216  0.37418638  0.93191872    -0.00770
C1709       C  0.76164101  0.35465015  0.93310972    -0.12490
C1710       C  0.78958696  0.36440404  0.95016255     0.01440
H1711       H  0.77472040  0.43651612  0.97767674     0.14420
H1712       H  0.75792960  0.33194387  0.91972431     0.14420
C1713       C  0.81330587  0.34383373  0.94807037     0.36070
C1714       C  0.71938956  0.42432735  0.94694981     0.35980
N1715       N  0.83233149  0.32743028  0.94606639    -0.44270
N1716       N  0.70019428  0.44052892  0.94688831    -0.44270
C1717       C  0.55248130  0.34519500  0.92188227    -0.00680
C1718       C  0.55105022  0.37550955  0.91489919    -0.12550
C1719       C  0.52648623  0.39083100  0.93173187     0.01560
C1720       C  0.50208535  0.37536256  0.95389992    -0.00770
C1721       C  0.50218637  0.34462817  0.95544320    -0.12490
C1722       C  0.52709943  0.32935820  0.93951166     0.01440
H1723       H  0.57007544  0.38767980  0.89966063     0.14420
H1724       H  0.98964333  0.31472168  0.00894720     0.14420
C1725       C  0.52625963  0.29783726  0.94438305     0.36070
C1726       C  0.52819940  0.42248569  0.92933202     0.35980
N1727       N  0.52548754  0.27258464  0.94817881    -0.44270
N1728       N  0.52988824  0.44781625  0.92744899    -0.44270
C1729       C  0.58280029  0.22622241  0.84036086    -0.00680
C1730       C  0.56941120  0.20967342  0.88087462    -0.12550
C1731       C  0.55709814  0.18184032  0.86919659     0.01560
C1732       C  0.55841730  0.17052632  0.81638038    -0.00770
C1733       C  0.56740102  0.18875783  0.77502938    -0.12490
C1734       C  0.57916964  0.21675295  0.78633789     0.01440
H1735       H  0.57061875  0.21737971  0.92231233     0.14420
H1736       H  0.56679440  0.18041646  0.73388343     0.14420
C1737       C  0.58894733  0.23406179  0.74179122     0.36070
C1738       C  0.54565188  0.16479149  0.91262800     0.35980
N1739       N  0.59670686  0.24774676  0.70586293    -0.44270
N1740       N  0.53624540  0.15170944  0.94804766    -0.44270
C1741       C  0.63141763  0.41432459  0.82894061    -0.00680
C1742       C  0.63390993  0.41987751  0.77398368    -0.12550
C1743       C  0.62060387  0.44418131  0.75244704     0.01560
C1744       C  0.60370643  0.46252321  0.78593500    -0.00770
C1745       C  0.60174757  0.45740284  0.84067377    -0.12490
C1746       C  0.61598090  0.43412262  0.86274371     0.01440
H1747       H  0.64602414  0.40511687  0.74771654     0.14420
H1748       H  0.58895435  0.47184148  0.86650900     0.14420
C1749       C  0.61356273  0.43107885  0.91996163     0.36070
C1750       C  0.62349198  0.44913094  0.69593917     0.35980
N1751       N  0.61155364  0.42883353  0.96579937    -0.44270
N1752       N  0.62591437  0.45316861  0.65067490    -0.44270
C1753       C  0.64653494  0.32809764  0.69885437    -0.00680
C1754       C  0.67155073  0.33123243  0.66644872    -0.12550
C1755       C  0.66909927  0.32864713  0.61129096     0.01560
C1756       C  0.64101089  0.32370811  0.58825050    -0.00770
C1757       C  0.61565710  0.32181955  0.62057966    -0.12490
C1758       C  0.61830044  0.32393257  0.67615009     0.01440
H1759       H  0.69320067  0.33385130  0.68442039     0.14420
H1760       H  0.59400935  0.31844235  0.60245587     0.14420
C1761       C  0.59213751  0.32126960  0.70916206     0.36070
C1762       C  0.69581817  0.32826129  0.57948621     0.35980
N1763       N  0.57122128  0.31926687  0.73579624    -0.44270
N1764       N  0.71704949  0.32731894  0.55362779    -0.44270
C1765       C  0.63072526  0.34844190  0.08446620    -0.00680
C1766       C  0.61387961  0.32555551  0.10751285    -0.12550
C1767       C  0.61659480  0.31946813  0.16143339     0.01560
C1768       C  0.63598031  0.33707819  0.19377706    -0.00770
C1769       C  0.64893287  0.36279906  0.17245841    -0.12490
C1770       C  0.64649317  0.36860103  0.11818585     0.01440
H1771       H  0.60032317  0.31069870  0.08243290     0.14420
H1772       H  0.66285408  0.37743609  0.19725315     0.14420
C1773       C  0.66210922  0.39407108  0.09797556     0.36070
C1774       C  0.60109906  0.29366004  0.18065796     0.35980
N1775       N  0.67453413  0.41458389  0.08194571    -0.44270
N1776       N  0.58877237  0.27281122  0.19551697    -0.44270
C1777       C  0.69760047  0.25039271  0.47409670    -0.00680
C1778       C  0.68921135  0.25263887  0.52877534    -0.12550
C1779       C  0.70073297  0.23432274  0.56733203     0.01560
C1780       C  0.72078837  0.21274626  0.55146870    -0.00770
C1781       C  0.72721483  0.20927037  0.49611748    -0.12490
C1782       C  0.71645649  0.22799385  0.45797410     0.01280
H1783       H  0.67385196  0.26913960  0.54187952     0.14420
H1784       H  0.74263064  0.19306784  0.48265788     0.14420
C1785       C  0.72715200  0.22538509  0.40358663     0.36070
C1786       C  0.69252154  0.23896320  0.62270392     0.35980
N1787       N  0.73588419  0.22372293  0.36007189    -0.44270
N1788       N  0.68582095  0.24266399  0.66705792    -0.44270
C1789       C  0.78299099  0.26621353  0.17764694    -0.00680
C1790       C  0.75399921  0.27003981  0.16059798    -0.12550
C1791       C  0.73387507  0.28503542  0.19279644     0.01560
C1792       C  0.74317654  0.29836903  0.24187454    -0.00770
C1793       C  0.77291359  0.29694953  0.25693158    -0.12490
C1794       C  0.79270167  0.28032520  0.22584514     0.01440
H1795       H  0.74622470  0.25904735  0.12401889     0.14420
H1796       H  0.78021240  0.30728723  0.29445790     0.14420
C1797       C  0.82276678  0.27873694  0.24392800     0.36070
C1798       C  0.70337032  0.28457210  0.17578640     0.35980
N1799       N  0.84699077  0.27890120  0.25864152    -0.44270
N1800       N  0.67905338  0.28335511  0.16148203    -0.44270
C1801       C  0.80318320  0.38197330  0.48515303    -0.00680
C1802       C  0.77755747  0.39271517  0.51081308    -0.12550
C1803       C  0.74886794  0.38428176  0.49400791     0.01560
C1804       C  0.74472002  0.36413188  0.45052596    -0.00770
C1805       C  0.77028003  0.35300313  0.42504413    -0.12490
C1806       C  0.79915507  0.36185013  0.44152236     0.01440
H1807       H  0.77976333  0.40824951  0.54441065     0.14420
H1808       H  0.76778652  0.33762477  0.39127007     0.14420
C1809       C  0.82406557  0.34980129  0.41311508     0.36070
C1810       C  0.72418189  0.39632580  0.52320000     0.35980
N1811       N  0.84401679  0.34013498  0.39024350    -0.44270
N1812       N  0.70446412  0.40593161  0.54683917    -0.44270
C1813       C  0.55417469  0.33900408  0.43896257    -0.00680
C1814       C  0.53952981  0.31786946  0.47055100    -0.12550
C1815       C  0.51113831  0.32262228  0.49109119     0.01560
C1816       C  0.49683233  0.34826442  0.47815008    -0.00770
C1817       C  0.51089183  0.36844044  0.44413347    -0.12490
C1818       C  0.53943561  0.36435424  0.42534937     0.01440
H1819       H  0.55094348  0.29844985  0.48185832     0.14420
H1820       H  0.50013760  0.38853677  0.43441937     0.14420
C1821       C  0.55327192  0.38714709  0.39410806     0.36070
C1822       C  0.49730470  0.30127256  0.52531182     0.35980
N1823       N  0.56410183  0.40580165  0.36973752    -0.44270
N1824       N  0.48612582  0.28418673  0.55274135    -0.44270
C1825       C  0.59839374  0.22544457  0.36421928    -0.00680
C1826       C  0.58324144  0.22357763  0.31500433    -0.12550
C1827       C  0.57290869  0.19669997  0.29257366     0.01560
C1828       C  0.57672220  0.17059730  0.31984817    -0.00770
C1829       C  0.59062225  0.17220898  0.37015974    -0.12490
C1830       C  0.60121685  0.19935442  0.39273562     0.01440
H1831       H  0.58056518  0.24317611  0.29232692     0.14420
H1832       H  0.59408280  0.15214414  0.39103471     0.14420
C1833       C  0.61587578  0.19955097  0.44385698     0.36070
C1834       C  0.56051520  0.19632238  0.23942211     0.35980
N1835       N  0.62750912  0.19971001  0.48498747    -0.44270
N1836       N  0.55107637  0.19628044  0.19650436    -0.44270
C1837       C  0.63002767  0.47396083  0.27495042    -0.00680
C1838       C  0.61550586  0.44701009  0.26356080    -0.12550
C1839       C  0.62732662  0.42068494  0.27961675     0.01560
C1840       C  0.65484917  0.42068867  0.30690426    -0.00770
C1841       C  0.67057339  0.44759783  0.31462014    -0.12490
C1842       C  0.65818821  0.47418121  0.29943473     0.01440
H1843       H  0.59372859  0.44669264  0.24539958     0.14420
H1844       H  0.69121888  0.44818975  0.33657004     0.14420
C1845       C  0.67445257  0.00174702  0.31040238     0.36070
C1846       C  0.60908333  0.39428706  0.27202396     0.35980
N1847       N  0.68711441  0.02372713  0.32008595    -0.44270
N1848       N  0.59383889  0.37353655  0.26657246    -0.44270
O1849       O  0.64171797  0.88544468  0.36933657    -0.80660
O1850       O  0.61731826  0.77287278  0.34531318    -0.80690
O1851       O  0.66295852  0.84430929  0.27119787    -0.80690
O1852       O  0.59536435  0.81173634  0.42098151    -0.80640
O1853       O  0.63960284  0.80198316  0.26669741    -0.80760
O1854       O  0.60344757  0.85876382  0.43392550    -0.80680
O1855       O  0.62452561  0.76132012  0.42551109    -0.80660
O1856       O  0.68643692  0.88258134  0.33769629    -0.80700
C1857       C  0.66186985  0.89543797  0.34003760     1.09030
C1858       C  0.61329985  0.75445518  0.38054390     1.08910
C1859       C  0.64532159  0.82660658  0.24730672     1.09050
C1860       C  0.58571500  0.83685346  0.42885513     1.08930
O1861       O  0.65006867  0.84217577  0.50382455    -0.80660
O1862       O  0.69957815  0.79376932  0.29781009    -0.80740
O1863       O  0.71233838  0.83365778  0.39754585    -0.80680
O1864       O  0.67601312  0.79622760  0.45878553    -0.80660
O1865       O  0.67770540  0.76457681  0.39117316    -0.80710
O1866       O  0.69233990  0.87109070  0.43796622    -0.80670
O1867       O  0.62381200  0.80021916  0.51066775    -0.80630
O1868       O  0.72060152  0.83860080  0.29257723    -0.80700
Co1869     Co  0.64758938  0.86117141  0.43077825     1.51530
Co1870     Co  0.65805398  0.78634911  0.33029813     1.51690
Co1871     Co  0.68636313  0.83777190  0.33596716     1.51570
Co1872     Co  0.63602895  0.80487345  0.43924199     1.51470
O1873       O  0.65073223  0.82496861  0.37565723    -1.42600
C1874       C  0.63694394  0.82244865  0.53210741     1.08950
C1875       C  0.72032207  0.81133614  0.28094722     1.09040
C1876       C  0.71515168  0.85582795  0.42832763     1.08980
C1877       C  0.68452691  0.77235140  0.43941300     1.08960
O1878       O  0.64065389  0.86428842  0.00035295    -0.80660
O1879       O  0.69938546  0.78121442  0.83911237    -0.80690
O1880       O  0.65540462  0.77360689  0.96474830    -0.80690
O1881       O  0.70391936  0.86538617  0.87299112    -0.80640
O1882       O  0.66141058  0.74563415  0.89267330    -0.80760
O1883       O  0.68760637  0.84189948  0.94503344    -0.80680
O1884       O  0.70225032  0.82353858  0.80554879    -0.80660
O1885       O  0.62352900  0.81901732  0.00130772    -0.80700
C1886       C  0.62968726  0.84331935  0.02629215     1.09030
C1887       C  0.71243173  0.79851344  0.80799559     1.08910
C1888       C  0.66593392  0.75148196  0.94204832     1.09050
C1889       C  0.70740672  0.85772614  0.92101082     1.08930
O1890       O  0.64535766  0.88206202  0.90157856    -0.80660
O1891       O  0.61437606  0.76298771  0.81898283    -0.80740
O1892       O  0.58127219  0.80396110  0.91934949    -0.80680
O1893       O  0.65652702  0.84347958  0.79042303    -0.80660
O1894       O  0.65207606  0.79577842  0.76565896    -0.80710
O1895       O  0.60032351  0.84855292  0.92263888    -0.80670
O1896       O  0.65243276  0.86557262  0.82164556    -0.80630
O1897       O  0.60646618  0.75239648  0.90157472    -0.80700
Co1898     Co  0.64296136  0.84230373  0.93356149     1.51530
Co1899     Co  0.65584778  0.77381365  0.83231443     1.51690
Co1900     Co  0.61903735  0.78907867  0.94019055     1.51570
Co1901     Co  0.67391705  0.83601317  0.86271282     1.51470
O1902       O  0.64076283  0.80965439  0.87554103    -1.42600
C1903       C  0.64393389  0.88627644  0.85231792     1.08950
C1904       C  0.59964731  0.74939075  0.85303836     1.09040
C1905       C  0.57820440  0.83110506  0.91751260     1.08980
C1906       C  0.65037974  0.82277696  0.75558549     1.08960
O1907       O  0.96237979  0.89846777  0.98700716    -0.80660
O1908       O  0.82484900  0.90372802  0.05124878    -0.80690
O1909       O  0.89763636  0.84874430  0.01100310    -0.80690
O1910       O  0.87878592  0.88928477  0.90933086    -0.80640
O1911       O  0.86499606  0.86042082  0.07542332    -0.80760
O1912       O  0.92501373  0.90024738  0.91493261    -0.80680
O1913       O  0.83541069  0.89662053  0.96722301    -0.80660
O1914       O  0.95733923  0.85702395  0.03249929    -0.80700
C1915       C  0.97208669  0.87342252  0.00111582     1.09030
C1916       C  0.81799502  0.89433204  0.00549489     1.08910
C1917       C  0.87747246  0.84109492  0.04365873     1.09050
C1918       C  0.90376315  0.88787426  0.88957751     1.08930
O1919       O  0.94931447  0.95117804  0.94874346    -0.80660
O1920       O  0.89948755  0.91081038  0.12516161    -0.80740
O1921       O  0.95064785  0.91020854  0.07921848    -0.80680
O1922       O  0.85555208  0.95694251  0.99771259    -0.80660
O1923       O  0.86332909  0.94976426  0.08445237    -0.80710
O1924       O  0.93357144  0.94992859  0.04919656    -0.80670
O1925       O  0.90175521  0.95119366  0.92294659    -0.80630
O1926       O  0.91583730  0.86743045  0.11492594    -0.80700
Co1927     Co  0.92596521  0.92525036  0.98468226     1.51530
Co1928     Co  0.86489855  0.90629839  0.08161867     1.51690
Co1929     Co  0.92369147  0.87992030  0.03869220     1.51570
Co1930     Co  0.86949345  0.92229654  0.95516650     1.51470
O1931       O  0.89206896  0.90594501  0.01857072    -1.42600
C1932       C  0.92912740  0.96068506  0.91994921     1.08950
C1933       C  0.90681398  0.88773026  0.14587719     1.09040
C1934       C  0.45902626  0.95377492  0.05765401     1.08980
C1935       C  0.85713126  0.96626015  0.04617004     1.08960
O1936       O  0.95177276  0.87662082  0.46845724    -0.80660
O1937       O  0.83636067  0.90614374  0.54506539    -0.80690
O1938       O  0.90446732  0.85746341  0.53292213    -0.80690
O1939       O  0.88052716  0.92757779  0.39397707    -0.80640
O1940       O  0.87260973  0.86656159  0.59755014    -0.80760
O1941       O  0.92180743  0.90225852  0.39662400    -0.80680
O1942       O  0.85914103  0.89288457  0.47254761    -0.80660
O1943       O  0.96363376  0.86030354  0.54787085    -0.80700
C1944       C  0.96856740  0.86200989  0.49809941     1.09030
C1945       C  0.83529147  0.89397790  0.49943399     1.08910
C1946       C  0.88533466  0.84837562  0.56564734     1.09050
C1947       C  0.90049422  0.91210957  0.36981464     1.08930
O1948       O  0.94684597  0.94194881  0.45453293    -0.80660
O1949       O  0.89931061  0.91709922  0.65266059    -0.80740
O1950       O  0.96378165  0.91768387  0.57601059    -0.80680
O1951       O  0.85587888  0.95633204  0.50167186    -0.80660
O1952       O  0.86545847  0.95472922  0.58953098    -0.80710
O1953       O  0.96184453  0.92849597  0.49111081    -0.80670
O1954       O  0.90904468  0.96821207  0.46204830    -0.80630
O1955       O  0.92813867  0.88026901  0.63212304    -0.80700
Co1956     Co  0.92046360  0.90740459  0.47326025     1.51530
Co1957     Co  0.87051692  0.91151909  0.59371349     1.51690
Co1958     Co  0.93346324  0.88861729  0.55493418     1.51570
Co1959     Co  0.88684413  0.92888047  0.47277855     1.51470
O1960       O  0.90544862  0.91955251  0.54469162    -1.42600
C1961       C  0.93546957  0.96663349  0.44671085     1.08950
C1962       C  0.91489485  0.89602568  0.66664585     1.09040
C1963       C  0.97491120  0.93106304  0.53733408     1.08980
C1964       C  0.85662461  0.96860908  0.54881172     1.08960
O1965       O  0.74273955  0.69558440  0.13415221    -0.80660
O1966       O  0.83438783  0.61067816  0.05389737    -0.80690
O1967       O  0.82061528  0.70659355  0.01740512    -0.80690
O1968       O  0.78553353  0.62054460  0.18412920    -0.80640
O1969       O  0.81697494  0.65961223  0.00337349    -0.80760
O1970       O  0.76655807  0.64109747  0.11462251    -0.80680
O1971       O  0.83793103  0.60108752  0.14022114    -0.80660
O1972       O  0.77222451  0.69520319  0.06476182    -0.80700
C1973       C  0.74699530  0.70054458  0.08488143     1.09030
C1974       C  0.83642572  0.59275132  0.09164031     1.08910
C1975       C  0.81486575  0.68485392  0.98539736     1.09050
C1976       C  0.76418028  0.62252874  0.15042180     1.08930
O1977       O  0.77537769  0.67098237  0.21986469    -0.80660
O1978       O  0.86871964  0.69493385  0.04990800    -0.80740
O1979       O  0.80319826  0.74401964  0.10153831    -0.80680
O1980       O  0.87219662  0.65003647  0.18263240    -0.80660
O1981       O  0.88342100  0.64268461  0.09687355    -0.80710
O1982       O  0.79598571  0.71897548  0.17333004    -0.80670
O1983       O  0.82272435  0.67109609  0.23043522    -0.80630
O1984       O  0.85207918  0.71159973  0.12549923    -0.80700
Co1985     Co  0.78186325  0.67894023  0.14005888     1.51530
Co1986     Co  0.84883061  0.65262959  0.05457321     1.51690
Co1987     Co  0.81264099  0.70316778  0.09852952     1.51570
Co1988     Co  0.82911527  0.63755324  0.18108539     1.51470
O1989       O  0.82131996  0.66252323  0.11744031    -1.42600
C1990       C  0.79761354  0.67435986  0.25080472     1.08950
C1991       C  0.86800386  0.71587091  0.08567876     1.09040
C1992       C  0.79575010  0.74350778  0.15008850     1.08980
C1993       C  0.89090865  0.64565002  0.14530164     1.08960
O1994       O  0.74007337  0.69862542  0.64021114    -0.80660
O1995       O  0.83703213  0.61210793  0.55194703    -0.80690
O1996       O  0.80900785  0.70562424  0.51378926    -0.80690
O1997       O  0.78471365  0.62307458  0.69284024    -0.80640
O1998       O  0.81190832  0.65835985  0.50168221    -0.80760
O1999       O  0.75976733  0.64171868  0.62764076    -0.80680
O2000       O  0.83428458  0.60343654  0.63852652    -0.80660
O2001       O  0.76508312  0.68874477  0.56891026    -0.80700
C2002       C  0.74180390  0.69896687  0.58932800     1.09030
C2003       C  0.83660312  0.59438727  0.59051603     1.08910
C2004       C  0.80651834  0.68284398  0.48286841     1.09050
C2005       C  0.76070386  0.62438643  0.66556508     1.08930
O2006       O  0.77648705  0.67439841  0.72557957    -0.80660
O2007       O  0.86065679  0.69996854  0.54054869    -0.80740
O2008       O  0.78849172  0.74423705  0.60335288    -0.80680
O2009       O  0.87118294  0.65004864  0.67828800    -0.80660
O2010       O  0.88283954  0.65058541  0.59167606    -0.80710
O2011       O  0.79691713  0.71833489  0.67196895    -0.80670
O2012       O  0.82414907  0.67317436  0.73278188    -0.80630
O2013       O  0.84370840  0.72042409  0.61363966    -0.80700
Co2014     Co  0.77914012  0.67972031  0.64472213     1.51530
Co2015     Co  0.84580365  0.65598435  0.55113815     1.51690
Co2016     Co  0.80465699  0.70395181  0.59525816     1.51570
Co2017     Co  0.82794074  0.63958972  0.68111830     1.51470
O2018       O  0.81846882  0.66418157  0.61665462    -1.42600
C2019       C  0.79942526  0.67672809  0.75483166     1.08950
C2020       C  0.85940560  0.72254229  0.57281137     1.09040
C2021       C  0.78847822  0.74239062  0.65420736     1.08980
C2022       C  0.88995345  0.64880935  0.64030960     1.08960
O2023       O  0.59652065  0.00914707  0.30683474    -0.80660
O2024       O  0.58694837  0.62950131  0.26598983    -0.80690
O2025       O  0.63462661  0.55451474  0.17346881    -0.80690
O2026       O  0.54937110  0.58383811  0.35570319    -0.80640
O2027       O  0.62238877  0.60076256  0.19139906    -0.80760
O2028       O  0.59329666  0.56739866  0.33400348    -0.80680
O2029       O  0.54144583  0.63169802  0.29417552    -0.80660
O2030       O  0.61360953  0.51544750  0.22581858    -0.80700
C2031       C  0.61337129  0.00122690  0.26915522     1.09030
C2032       C  0.56772618  0.64210613  0.29390690     1.08910
C2033       C  0.64200715  0.58133784  0.17912200     1.09050
C2034       C  0.57558936  0.57789940  0.36885696     1.08930
O2035       O  0.54289028  0.52977264  0.32990115    -0.80660
O2036       O  0.57067643  0.59546662  0.11986817    -0.80740
O2037       O  0.57365013  0.02818364  0.15703235    -0.80680
O2038       O  0.50454272  0.59501791  0.22448745    -0.80660
O2039       O  0.53512699  0.62795285  0.18957368    -0.80710
O2040       O  0.55304136  0.01238757  0.22991610    -0.80670
O2041       O  0.50725633  0.55006876  0.28908365    -0.80630
O2042       O  0.58494642  0.55007231  0.12663287    -0.80700
Co2043     Co  0.57470957  0.54063788  0.27844946     1.51530
Co2044     Co  0.57707013  0.61019507  0.19596769     1.51690
Co2045     Co  0.59694635  0.55581840  0.20541983     1.51570
Co2046     Co  0.52804407  0.58893840  0.28700998     1.51470
O2047       O  0.55981803  0.57292175  0.23536453    -1.42600
C2048       C  0.51554464  0.53240056  0.32302798     1.08950
C2049       C  0.57690309  0.57108320  0.09726706     1.09040
C2050       C  0.55406522  0.01193475  0.17950054     1.08980
C2051       C  0.50887009  0.61655931  0.19524109     1.08960
O2052       O  0.56101095  0.98787041  0.78172918    -0.80660
O2053       O  0.57262210  0.62687448  0.77293747    -0.80690
O2054       O  0.63378543  0.54976712  0.69012567    -0.80690
O2055       O  0.57333325  0.58409054  0.83508547    -0.80640
O2056       O  0.61966900  0.59563009  0.71028567    -0.80760
O2057       O  0.56565684  0.53701430  0.83712620    -0.80680
O2058       O  0.53133036  0.62375397  0.82208184    -0.80660
O2059       O  0.60097599  0.00734027  0.74063785    -0.80700
C2060       C  0.58792713  0.98650792  0.76751650     1.09030
C2061       C  0.55207612  0.63905551  0.80154254     1.08910
C2062       C  0.64047095  0.57676582  0.69896436     1.09050
C2063       C  0.57318067  0.56099283  0.86108907     1.08930
O2064       O  0.51193752  0.52457201  0.78059238    -0.80660
O2065       O  0.57607721  0.59234889  0.62487847    -0.80740
O2066       O  0.57838388  0.02103606  0.64723563    -0.80680
O2067       O  0.50633160  0.59479298  0.73911120    -0.80660
O2068       O  0.53290425  0.61865615  0.68096788    -0.80710
O2069       O  0.53881164  0.00885289  0.69343949    -0.80670
O2070       O  0.51208957  0.56618730  0.82739068    -0.80630
O2071       O  0.58964595  0.54671930  0.62619411    -0.80700
Co2072     Co  0.55351304  0.52571046  0.76017603     1.51530
Co2073     Co  0.57365912  0.60414474  0.70055678     1.51690
Co2074     Co  0.59354322  0.54925499  0.70794153     1.51570
Co2075     Co  0.54057166  0.58936145  0.78366571     1.51470
O2076       O  0.55434850  0.56340484  0.72728396    -1.42600
C2077       C  0.00179367  0.53390827  0.79597676     1.08950
C2078       C  0.58353867  0.56945525  0.59982312     1.09040
C2079       C  0.55330536  0.00692495  0.65077581     1.08980
C2080       C  0.50769657  0.61025725  0.69864331     1.08960
C2081       C  0.58335297  0.57051573  0.54005501    -0.00680
C2082       C  0.56574360  0.59184196  0.51777888    -0.12550
C2083       C  0.56526338  0.59642413  0.46301001     0.01560
C2084       C  0.58234667  0.57902019  0.42740821    -0.00770
C2085       C  0.60103334  0.55834356  0.44946102    -0.12490
C2086       C  0.60159232  0.55393978  0.50524904     0.01440
H2087       H  0.55178775  0.60520015  0.54347655     0.14420
H2088       H  0.61403870  0.54450538  0.42298674     0.14420
C2089       C  0.62102456  0.53247295  0.52555966     0.36070
C2090       C  0.54620994  0.61896420  0.44489006     0.35980
N2091       N  0.63662936  0.51523255  0.54180142    -0.44270
N2092       N  0.53076042  0.63692407  0.43079645    -0.44270
C2093       C  0.57481223  0.56704293  0.03684141    -0.00680
C2094       C  0.59397977  0.54800068  0.00869271    -0.12550
C2095       C  0.59448299  0.54582799  0.95187486     0.01560
C2096       C  0.57571789  0.56301002  0.92140674    -0.00770
C2097       C  0.55640051  0.58162210  0.94956935    -0.12490
C2098       C  0.55547170  0.58348572  0.00599863     0.01440
H2099       H  0.60925993  0.53531498  0.03108297     0.14420
H2100       H  0.54124111  0.59432713  0.92705203     0.14420
C2101       C  0.53335565  0.60148760  0.03120340     0.36070
C2102       C  0.61573531  0.52723895  0.92579760     0.35980
N2103       N  0.01325318  0.61590911  0.05339624    -0.44270
N2104       N  0.63317321  0.51265021  0.90511943    -0.44270
C2105       C  0.97745776  0.61840494  0.67476199    -0.00680
C2106       C  0.97459022  0.64681082  0.65503824    -0.12550
C2107       C  0.94640374  0.65752400  0.64282911     0.01560
C2108       C  0.92055941  0.64018414  0.65252688    -0.00770
C2109       C  0.92361509  0.61155988  0.66956715    -0.12490
C2110       C  0.95139617  0.60032950  0.67919842     0.01440
H2111       H  0.99413938  0.66094160  0.65073866     0.14420
H2112       H  0.90399969  0.59749116  0.67415797     0.14420
C2113       C  0.95219437  0.56974222  0.69262227     0.36070
C2114       C  0.94444509  0.68644826  0.62169007     0.35980
N2115       N  0.95245129  0.54519695  0.70300374    -0.44270
N2116       N  0.94294822  0.70959299  0.60440299    -0.44270
C2117       C  0.73187538  0.61036085  0.68283859    -0.00680
C2118       C  0.72453840  0.58124269  0.66711607    -0.12550
C2119       C  0.69548331  0.56938083  0.67354192     0.01560
C2120       C  0.67260997  0.58689784  0.69597749    -0.00770
C2121       C  0.68046809  0.61557871  0.71349986    -0.12490
C2122       C  0.70933136  0.62733605  0.70724001     0.01440
H2123       H  0.74125968  0.56803883  0.64769752     0.14420
H2124       H  0.66373361  0.62933697  0.73146590     0.14420
C2125       C  0.71440622  0.65721859  0.72650554     0.36070
C2126       C  0.68987459  0.53950257  0.65450054     0.35980
N2127       N  0.71683437  0.68110239  0.74346175    -0.44270
N2128       N  0.68557756  0.51551083  0.63924805    -0.44270
C2129       C  0.79816880  0.68216039  0.81415468    -0.00680
C2130       C  0.81490597  0.70571419  0.83769832    -0.12550
C2131       C  0.81827313  0.70895465  0.89367878     0.01560
C2132       C  0.80631371  0.68733980  0.92761240    -0.00770
C2133       C  0.78854070  0.66447750  0.90394354    -0.12490
C2134       C  0.78419396  0.66190272  0.84826487     0.01440
H2135       H  0.82594097  0.72142846  0.81210472     0.14420
H2136       H  0.77883308  0.64771765  0.92900473     0.14420
C2137       C  0.76751782  0.63667359  0.82703646     0.36070
C2138       C  0.83486150  0.73422622  0.91441329     0.35980
N2139       N  0.75426612  0.61621709  0.81063399    -0.44270
N2140       N  0.84770900  0.75513470  0.92973163    -0.44270
C2141       C  0.79593433  0.68112050  0.30990856    -0.00680
C2142       C  0.77489143  0.66649049  0.34191109    -0.12550
C2143       C  0.77734296  0.66731687  0.39832566     0.01560
C2144       C  0.80023076  0.68436316  0.42421046    -0.00770
C2145       C  0.82064224  0.69951305  0.39218602    -0.12490
C2146       C  0.81887161  0.69798662  0.33615573     0.01440
H2147       H  0.75776568  0.65269526  0.32282309     0.14420
H2148       H  0.83946108  0.71096896  0.41089084     0.14420
C2149       C  0.84241889  0.71233720  0.30666547     0.36070
C2150       C  0.75684608  0.64943665  0.42860801     0.35980
N2151       N  0.86173052  0.72316218  0.28315967    -0.44270
N2152       N  0.74036491  0.63520972  0.45301392    -0.44270
C2153       C  0.92231718  0.64043550  0.15675662    -0.00680
C2154       C  0.93302039  0.61332948  0.13901652    -0.12550
C2155       C  0.96252543  0.60647757  0.14603714     0.01560
C2156       C  0.98249422  0.62709556  0.17093945    -0.00770
C2157       C  0.97224460  0.65499319  0.18629519    -0.12490
C2158       C  0.94228346  0.66182233  0.17911973     0.01440
H2159       H  0.91792682  0.59698878  0.12075484     0.14420
H2160       H  0.98709657  0.67072721  0.20673657     0.14420
C2161       C  0.93253086  0.69072430  0.19446325     0.36070
C2162       C  0.97135529  0.57724285  0.13022073     0.35980
N2163       N  0.92467111  0.71395534  0.20638419    -0.44270
N2164       N  0.97824281  0.55377258  0.11773533    -0.44270
C2165       C  0.67345172  0.59053656  0.17118501    -0.00680
C2166       C  0.69605842  0.57816504  0.20101559    -0.12550
C2167       C  0.72605010  0.58718317  0.19454372     0.01560
C2168       C  0.73387726  0.60837671  0.15648855    -0.00770
C2169       C  0.71092356  0.61934889  0.12506454    -0.12490
C2170       C  0.68125642  0.61100798  0.13252535     0.01440
H2171       H  0.69018718  0.56191990  0.23027282     0.14420
H2172       H  0.71581304  0.63541648  0.09499593     0.14420
C2173       C  0.65918160  0.62334998  0.09897592     0.36070
C2174       C  0.74809348  0.57442449  0.22733191     0.35980
N2175       N  0.64146008  0.63312369  0.07210269    -0.44270
N2176       N  0.76574144  0.56411901  0.25365068    -0.44270
C2177       C  0.00139999  0.95067200  0.54696315    -0.00680
C2178       C  0.49204792  0.97919896  0.56135928    -0.12550
C2179       C  0.51286324  0.99941834  0.58395404     0.01560
C2180       C  0.53925589  0.98955646  0.60616525    -0.00770
C2181       C  0.54563474  0.95969331  0.59998663    -0.12490
C2182       C  0.52524806  0.93952471  0.57547945     0.01440
H2183       H  0.97889617  0.98918690  0.52422945     0.14420
H2184       H  0.56536601  0.95168721  0.61838789     0.14420
C2185       C  0.03132594  0.90938691  0.57671279     0.36070
C2186       C  0.50520405  0.53005698  0.58614562     0.35980
N2187       N  0.03494042  0.88453233  0.58066046    -0.44270
N2188       N  0.49996154  0.55475049  0.58798624    -0.44270
C2189       C  0.94918041  0.48819050  0.42523114    -0.00680
C2190       C  0.97793954  0.49491831  0.44199567    -0.12550
C2191       C  0.99808544  0.51073911  0.41149576     0.01560
C2192       C  0.99080814  0.51857002  0.35936347    -0.00770
C2193       C  0.96158763  0.51241425  0.34153027    -0.12490
C2194       C  0.94485327  0.01839784  0.40626583     0.01440
H2195       H  0.98573060  0.48567095  0.47698115     0.14420
H2196       H  0.95538322  0.51826500  0.30154149     0.14420
C2197       C  0.91631008  0.02874254  0.42239035     0.36070
C2198       C  0.53295421  0.50354533  0.42284262     0.35980
N2199       N  0.89353407  0.03749349  0.43523946    -0.44270
N2200       N  0.55670260  0.50456370  0.43995424    -0.44270
C2201       C  0.87946432  0.81596738  0.56725718    -0.00680
C2202       C  0.86154083  0.80231823  0.52793988    -0.12550
C2203       C  0.85655869  0.77164470  0.52531526     0.01560
C2204       C  0.87088619  0.75312709  0.56145933    -0.00770
C2205       C  0.88976107  0.76710181  0.59980583    -0.12490
C2206       C  0.89423642  0.79793095  0.60280169     0.01440
H2207       H  0.85050774  0.81594936  0.49988575     0.14420
H2208       H  0.89999768  0.75391920  0.62948587     0.14420
C2209       C  0.91390736  0.81038754  0.64330267     0.36070
C2210       C  0.83423460  0.76140332  0.48786894     0.35980
N2211       N  0.92982782  0.81979074  0.67611255    -0.44270
N2212       N  0.81555550  0.75618204  0.45723832    -0.44270
C2213       C  0.83957144  0.56169856  0.58110401    -0.00680
C2214       C  0.83733919  0.54883973  0.52925946    -0.12550
C2215       C  0.84114356  0.51842326  0.51962489     0.01560
C2216       C  0.84724996  0.49981547  0.56254890    -0.00770
C2217       C  0.84894188  0.51270502  0.61418945    -0.12490
C2218       C  0.84557640  0.54282078  0.62384354     0.01440
H2219       H  0.83287672  0.56261207  0.49588323     0.14420
H2220       H  0.85380239  0.49926666  0.64785601     0.14420
C2221       C  0.84983478  0.55334107  0.67852407     0.36070
C2222       C  0.83151254  0.00670069  0.46361426     0.35980
N2223       N  0.85337860  0.56154316  0.72237059    -0.44270
N2224       N  0.82626280  0.99746329  0.42095202    -0.44270
C2225       C  0.90642454  0.87783178  0.83263357    -0.00680
C2226       C  0.93452087  0.87635722  0.80866397    -0.12550
C2227       C  0.93825682  0.88132128  0.75377047     0.01560
C2228       C  0.91335632  0.88714941  0.72259721    -0.00770
C2229       C  0.88510944  0.88352590  0.74467449    -0.12490
C2230       C  0.88130535  0.87817959  0.79871846     0.01440
H2231       H  0.95360355  0.87316397  0.83345628     0.14420
H2232       H  0.86577714  0.88573637  0.71968515     0.14420
C2233       C  0.85116790  0.87537440  0.81802658     0.36070
C2234       C  0.96770919  0.88238353  0.73131718     0.35980
N2235       N  0.82695916  0.87321225  0.83300590    -0.44270
N2236       N  0.99132224  0.88323921  0.71326304    -0.44270
C2237       C  0.90267970  0.88608057  0.20358076    -0.00680
C2238       C  0.87711289  0.89892042  0.22514774    -0.12550
C2239       C  0.87554891  0.90782833  0.27895954     0.01560
C2240       C  0.89996387  0.90369952  0.31223267    -0.00770
C2241       C  0.92468199  0.88884234  0.29091448    -0.12490
C2242       C  0.92608341  0.87989380  0.23721118     0.01440
H2243       H  0.85892933  0.90364453  0.19889174     0.14420
H2244       H  0.94356944  0.88470345  0.31581882     0.14420
C2245       C  0.95255843  0.86648236  0.21689305     0.36070
C2246       C  0.84903869  0.92162263  0.29812049     0.35980
N2247       N  0.97377977  0.85575872  0.20059034    -0.44270
N2248       N  0.82776069  0.93268798  0.31331944    -0.44270
C2249       C  0.53097141  0.99523421  0.14776540    -0.00680
C2250       C  0.52542445  0.00358777  0.09522050    -0.12550
C2251       C  0.50148762  0.99141434  0.06582671     0.01560
C2252       C  0.48226142  0.97028543  0.08892422    -0.00770
C2253       C  0.98339305  0.94079672  0.16098059    -0.12490
C2254       C  0.51198268  0.97364261  0.17050778     0.01440
H2255       H  0.53957067  0.02003804  0.07694096     0.14420
H2256       H  0.97530289  0.91902682  0.17092341     0.14420
C2257       C  0.51676529  0.96280724  0.22333957     0.36070
C2258       C  0.49831699  0.00002604  0.01121648     0.35980
N2259       N  0.52054715  0.95401614  0.26558007    -0.44270
N2260       N  0.49627381  0.00689277  0.96731945    -0.44270
C2261       C  0.98037001  0.51316187  0.81633498    -0.00680
C2262       C  0.97488753  0.98777473  0.80896824    -0.12550
C2263       C  0.96005601  0.96865522  0.84152760     0.01560
C2264       C  0.94861284  0.46979123  0.86809406    -0.00770
C2265       C  0.94072996  0.49933253  0.87491947    -0.12490
C2266       C  0.95706306  0.52128257  0.85006179     0.01440
H2267       H  0.99198510  0.97904636  0.78287061     0.14420
H2268       H  0.92329737  0.50555907  0.90255698     0.14420
C2269       C  0.95009275  0.55162886  0.86064328     0.36070
C2270       C  0.97239873  0.93992227  0.84501325     0.35980
N2271       N  0.94454616  0.57595155  0.86912721    -0.44270
N2272       N  0.98456237  0.91818537  0.84911246    -0.44270
C2273       C  0.87558557  0.74769824  0.07575942    -0.00680
C2274       C  0.86312525  0.76871184  0.11144844    -0.12550
C2275       C  0.86017543  0.79804699  0.09845619     0.01560
C2276       C  0.87362037  0.80871576  0.05191966    -0.00770
C2277       C  0.88860750  0.78838466  0.01804945    -0.12490
C2278       C  0.88921236  0.75815056  0.02908237     0.01440
H2279       H  0.85363145  0.76189477  0.14891539     0.14420
H2280       H  0.89997566  0.79604221  0.98264536     0.14420
C2281       C  0.90448952  0.73858538  0.99274341     0.36070
C2282       C  0.84256877  0.81654178  0.13317115     0.35980
N2283       N  0.91681694  0.72290293  0.96365916    -0.44270
N2284       N  0.82827882  0.83191041  0.15958823    -0.44270
C2285       C  0.85421040  0.50065755  0.07029811    -0.00680
C2286       C  0.87217141  0.52276109  0.04661609    -0.12550
C2287       C  0.86533650  0.55232642  0.05016842     0.01560
C2288       C  0.84051923  0.56115304  0.07965758    -0.00770
C2289       C  0.82288167  0.53965367  0.10524596    -0.12490
C2290       C  0.82916470  0.50951563  0.09995037     0.01440
H2291       H  0.89188257  0.51709604  0.02419267     0.14420
H2292       H  0.80415717  0.54645310  0.12935099     0.14420
C2293       C  0.82130999  0.98817374  0.13769224     0.36070
C2294       C  0.88516718  0.57335040  0.02516629     0.35980
N2295       N  0.81013542  0.97216078  0.16715963    -0.44270
N2296       N  0.90111357  0.59010183  0.00516909    -0.44270
C2297       C  0.68561116  0.73426942  0.97364644    -0.00680
C2298       C  0.71477380  0.74438222  0.97484250    -0.12550
C2299       C  0.73460597  0.73390429  0.01099714     0.01560
C2300       C  0.72509518  0.71301008  0.04900766    -0.00770
C2301       C  0.69528909  0.70326123  0.04896609    -0.12490
C2302       C  0.67541914  0.71388690  0.01143327     0.01440
H2303       H  0.72182702  0.76184114  0.94862163     0.14420
H2304       H  0.68767058  0.68731168  0.07758001     0.14420
C2305       C  0.64472380  0.70424999  0.01287701     0.36070
C2306       C  0.76406373  0.74688922  0.00830345     0.35980
N2307       N  0.62008038  0.69658428  0.01384219    -0.44270
N2308       N  0.78681781  0.75876229  0.00274157    -0.44270
C2309       C  0.73718788  0.78875129  0.77263262    -0.00680
C2310       C  0.74346362  0.80268438  0.72375175    -0.12550
C2311       C  0.76206311  0.78971436  0.68442232     0.01560
C2312       C  0.77561832  0.76319994  0.69495515    -0.00770
C2313       C  0.77280050  0.75246231  0.74695436    -0.12490
C2314       C  0.75314741  0.76379095  0.78428946     0.01440
H2315       H  0.73293132  0.82291272  0.71521235     0.14420
H2316       H  0.78413584  0.73312855  0.75773177     0.14420
C2317       C  0.74878964  0.74746758  0.83231841     0.36070
C2318       C  0.76759415  0.80401695  0.63468384     0.35980
N2319       N  0.74579701  0.73302037  0.86920625    -0.44270
N2320       N  0.77296579  0.81538880  0.59495162    -0.44270
C2321       C  0.78889580  0.88134931  0.99425234    -0.00680
C2322       C  0.76416170  0.89808636  0.00610250    -0.12550
C2323       C  0.73700278  0.89044081  0.98263994     0.01560
C2324       C  0.73466430  0.86539927  0.94849496    -0.00770
C2325       C  0.75876543  0.84750638  0.93964353    -0.12490
C2326       C  0.78603803  0.85541374  0.96203739     0.01440
H2327       H  0.76661719  0.91832314  0.02993048     0.14420
H2328       H  0.75648908  0.82799816  0.91373767     0.14420
C2329       C  0.81103184  0.83739872  0.94942641     0.36070
C2330       C  0.71256299  0.90977354  0.99026317     0.35980
N2331       N  0.83107389  0.82311496  0.93888411    -0.44270
N2332       N  0.69306301  0.92545841  0.99534156    -0.44270
C2333       C  0.54882173  0.84355704  0.91629292    -0.00680
C2334       C  0.54774517  0.87383646  0.90870104    -0.12550
C2335       C  0.52410606  0.88971123  0.92794090     0.01560
C2336       C  0.50014331  0.87476384  0.95259976    -0.00770
C2337       C  0.49949456  0.84401107  0.95379574    -0.12490
C2338       C  0.52358496  0.82820424  0.93570059     0.01440
H2339       H  0.56666623  0.88561028  0.89202039     0.14420
H2340       H  0.98464093  0.81821837  0.97469160     0.14420
C2341       C  0.52227136  0.79668892  0.94070979     0.36070
C2342       C  0.52650061  0.92135310  0.92556780     0.35980
N2343       N  0.52111684  0.77144956  0.94467409    -0.44270
N2344       N  0.52870861  0.94666450  0.92374194    -0.44270
C2345       C  0.57777299  0.72655294  0.83637172    -0.00680
C2346       C  0.56344698  0.71059677  0.87667653    -0.12550
C2347       C  0.55205019  0.68238163  0.86564975     0.01560
C2348       C  0.55499308  0.67033059  0.81358906    -0.00770
C2349       C  0.56431698  0.68810730  0.77182525    -0.12490
C2350       C  0.57536172  0.71641177  0.78254775     0.01440
H2351       H  0.56365509  0.71892158  0.91779894     0.14420
H2352       H  0.56479519  0.67913578  0.73109989     0.14420
C2353       C  0.58613748  0.73313028  0.73795615     0.36070
C2354       C  0.54031398  0.66561353  0.90928532     0.35980
N2355       N  0.59469692  0.74627089  0.70189591    -0.44270
N2356       N  0.53073264  0.65259874  0.94466647    -0.44270
C2357       C  0.63215446  0.91365271  0.83148875    -0.00680
C2358       C  0.63570699  0.91972671  0.77685308    -0.12550
C2359       C  0.62248878  0.94405289  0.75485462     0.01560
C2360       C  0.60476073  0.96210159  0.78749627    -0.00770
C2361       C  0.60174986  0.95644345  0.84194393    -0.12490
C2362       C  0.61558412  0.93297396  0.86441966     0.01440
H2363       H  0.64844937  0.90525078  0.75109147     0.14420
H2364       H  0.58832674  0.97055941  0.86727196     0.14420
C2365       C  0.61136259  0.92909881  0.92110058     0.36070
C2366       C  0.62616739  0.94920811  0.69855579     0.35980
N2367       N  0.60785589  0.92616798  0.96649759    -0.44270
N2368       N  0.62912049  0.95339954  0.65343673    -0.44270
C2369       C  0.64452078  0.82980733  0.70076938    -0.00680
C2370       C  0.66921007  0.83551099  0.66872608    -0.12550
C2371       C  0.66718357  0.83235382  0.61353319     0.01560
C2372       C  0.63961503  0.82506876  0.58995342    -0.00770
C2373       C  0.61434981  0.82119915  0.62195195    -0.12490
C2374       C  0.61671450  0.82334842  0.67756129     0.01440
H2375       H  0.69052201  0.84017254  0.68701658     0.14420
H2376       H  0.59302438  0.81614022  0.60357209     0.14420
C2377       C  0.59069622  0.81850416  0.71019301     0.36070
C2378       C  0.69408023  0.83346090  0.58230047     0.35980
N2379       N  0.56988198  0.81479368  0.73652058    -0.44270
N2380       N  0.71537107  0.83365736  0.55654565    -0.44270
C2381       C  0.62565857  0.84425878  0.08504506    -0.00680
C2382       C  0.61342284  0.81884432  0.10807869    -0.12550
C2383       C  0.61724930  0.81349005  0.16197276     0.01560
C2384       C  0.63353449  0.83409359  0.19445409    -0.00770
C2385       C  0.64195333  0.86136626  0.17303450    -0.12490
C2386       C  0.63757868  0.86681507  0.11897563     0.01440
H2387       H  0.60259515  0.80182649  0.08315775     0.14420
H2388       H  0.65328943  0.87806902  0.19784962     0.14420
C2389       C  0.64563428  0.89549138  0.09991544     0.36070
C2390       C  0.60647166  0.78542579  0.18061050     0.35980
N2391       N  0.65146265  0.91887882  0.08572147    -0.44270
N2392       N  0.59808293  0.76267644  0.19458592    -0.44270
C2393       C  0.69764686  0.75185520  0.47684163    -0.00680
C2394       C  0.68795817  0.75209457  0.53084070    -0.12550
C2395       C  0.69993608  0.73345381  0.56839479     0.01560
C2396       C  0.72190461  0.71390583  0.55200350    -0.00770
C2397       C  0.73003813  0.71282502  0.49722299    -0.12490
C2398       C  0.71868926  0.73168827  0.46022736     0.01280
H2399       H  0.67113804  0.76713977  0.54403279     0.14420
H2400       H  0.74709978  0.69849858  0.48339656     0.14420
C2401       C  0.73098986  0.73172478  0.40680495     0.36070
C2402       C  0.68991923  0.73543487  0.62321286     0.35980
N2403       N  0.74103014  0.73216021  0.36419105    -0.44270
N2404       N  0.68176362  0.73693803  0.66710903    -0.44270
C2405       C  0.78084582  0.76799517  0.17658400    -0.00680
C2406       C  0.75123738  0.77009107  0.16228341    -0.12550
C2407       C  0.73138081  0.78388174  0.19632166     0.01560
C2408       C  0.74170492  0.79901067  0.24302757    -0.00770
C2409       C  0.77195278  0.79947532  0.25513399    -0.12490
C2410       C  0.79143205  0.78292493  0.22337795     0.01440
H2411       H  0.74282464  0.75803161  0.12723508     0.14420
H2412       H  0.77988773  0.81085216  0.29128755     0.14420
C2413       C  0.82185191  0.78171212  0.23978630     0.36070
C2414       C  0.70028781  0.77922481  0.18478201     0.35980
N2415       N  0.84633677  0.78191750  0.25306924    -0.44270
N2416       N  0.67562467  0.77407753  0.17528145    -0.44270
C2417       C  0.80514691  0.88332289  0.47924434    -0.00680
C2418       C  0.77985908  0.89452357  0.50540436    -0.12550
C2419       C  0.75081477  0.88603897  0.49010401     0.01560
C2420       C  0.74582920  0.86519060  0.44783255    -0.00770
C2421       C  0.77109362  0.85373466  0.42169829    -0.12490
C2422       C  0.80030542  0.86274224  0.43648335     0.01440
H2423       H  0.78265021  0.91050875  0.53817953     0.14420
H2424       H  0.76810177  0.83792140  0.38870947     0.14420
C2425       C  0.82477303  0.85030017  0.40737671     0.36070
C2426       C  0.72663142  0.89892323  0.51944554     0.35980
N2427       N  0.84438003  0.84035193  0.38391719    -0.44270
N2428       N  0.70729987  0.90919211  0.54320099    -0.44270
C2429       C  0.55407735  0.83999796  0.43921667    -0.00680
C2430       C  0.53931341  0.81846991  0.46974726    -0.12550
C2431       C  0.51094248  0.82305302  0.49033153     0.01560
C2432       C  0.49679662  0.84891960  0.47839886    -0.00770
C2433       C  0.51094328  0.86950903  0.44531068    -0.12490
C2434       C  0.53950231  0.86558735  0.42656429     0.01440
H2435       H  0.55062899  0.79884923  0.48027533     0.14420
H2436       H  0.50025202  0.88976033  0.43638383     0.14420
C2437       C  0.55350818  0.88874356  0.39642279     0.36070
C2438       C  0.49697999  0.80131642  0.52359529     0.35980
N2439       N  0.56443375  0.90770271  0.37294480    -0.44270
N2440       N  0.48571221  0.78391579  0.55026432    -0.44270
C2441       C  0.59756468  0.72581979  0.36533391    -0.00680
C2442       C  0.58328101  0.72390804  0.31520272    -0.12550
C2443       C  0.57281402  0.69706758  0.29257824     0.01560
C2444       C  0.57554977  0.67100713  0.32050649    -0.00770
C2445       C  0.58853051  0.67269817  0.37167079    -0.12490
C2446       C  0.59922817  0.69981251  0.39444814     0.01440
H2447       H  0.58126549  0.74345843  0.29216301     0.14420
H2448       H  0.59122655  0.65270068  0.39312972     0.14420
C2449       C  0.61263834  0.70010881  0.44666451     0.36070
C2450       C  0.56113014  0.69660619  0.23886603     0.35980
N2451       N  0.62323481  0.70041895  0.48871260    -0.44270
N2452       N  0.55215204  0.69632682  0.19559806    -0.44270
C2453       C  0.63022776  0.97419654  0.27462487    -0.00680
C2454       C  0.61522671  0.94737013  0.26453161    -0.12550
C2455       C  0.62677242  0.92113034  0.28136209     0.01560
C2456       C  0.65443988  0.92116096  0.30805032    -0.00770
C2457       C  0.67064171  0.94787200  0.31436938    -0.12490
C2458       C  0.65853793  0.97439453  0.29843866     0.01440
H2459       H  0.59332250  0.94714992  0.24688230     0.14420
H2460       H  0.69145761  0.94841052  0.33579025     0.14420
C2461       C  0.67371344  0.50157325  0.31270344     0.36070
C2462       C  0.60827876  0.89481685  0.27491511     0.35980
N2463       N  0.68609374  0.52356989  0.32345389    -0.44270
N2464       N  0.59301314  0.87403472  0.27023850    -0.44270
loop_ 
_geom_bond_atom_site_label_1 
_geom_bond_atom_site_label_2 
_geom_bond_distance 
_geom_bond_site_symmetry_2 
_ccdc_geom_bond_type 
O1            C9   1.252       .  A
O1          Co21   1.948       .  S
O2           C10   1.251       .  A
O2          Co22   1.959       .  S
O3           C11   1.242       .  A
O3          Co23   1.941       .  S
O4           C12   1.248       .  A
O4          Co24   1.938       .  S
O5           C11   1.256       .  A
O5          Co22   1.982       .  S
O6           C12   1.263       .  A
O6          Co21   1.996       .  S
O7           C10   1.273       .  A
O7          Co24   2.061       .  S
O8            C9   1.274       .  A
O8          Co23   2.041       .  S
C9          C608   1.491       .  S
C10         C593   1.504       .  S
C11         C536   1.475       .  S
C12         C581   1.467       .  S
O13          C26   1.289       .  A
O13         Co21   2.041       .  S
O14          C27   1.282       .  A
O14         Co22   2.031       .  S
O15          C28   1.246       .  A
O15         Co23   1.961       .  S
O16          C29   1.244       .  A
O16         Co24   1.953       .  S
O17          C29   1.267       .  A
O17         Co22   2.030       .  S
O18          C28   1.275       .  A
O18         Co21   2.058       .  S
O19          C26   1.270       .  A
O19         Co24   1.896       .  S
O20          C27   1.274       .  A
O20         Co23   1.932       .  S
Co21         O25   2.135       .  S
Co22         O25   2.123       .  S
Co23         O25   1.976       .  S
Co24         O25   1.961       .  S
C26         C524   1.450       .  S
C27         C560   1.476       .  S
C28         C572   1.503       .  S
C29         C545   1.471       .  S
O30          C38   1.264       .  A
O30         Co50   1.945   1_554  S
O31          C39   1.250       .  A
O31         Co51   1.971       .  S
O32          C40   1.238       .  A
O32         Co52   1.907       .  S
O33          C41   1.273       .  A
O33         Co53   1.887       .  S
O34          C40   1.264       .  A
O34         Co51   2.038       .  S
O35          C41   1.292       .  A
O35         Co50   2.055       .  S
O36          C39   1.249       .  A
O36         Co53   2.026       .  S
O37          C38   1.269   1_556  A
O37         Co52   1.991       .  S
C38         C533   1.476       .  S
C39         C461   1.500       .  S
C40         C449   1.458       .  S
C41         C476   1.450       .  S
O42          C55   1.258       .  A
O42         Co50   2.002       .  S
O43          C56   1.244       .  A
O43         Co51   1.928       .  S
O44          C57   1.252       .  A
O44         Co52   1.933       .  S
O45          C58   1.286       .  A
O45         Co53   2.011       .  S
O46          C58   1.268       .  A
O46         Co51   1.982       .  S
O47          C57   1.268       .  A
O47         Co50   2.003       .  S
O48          C55   1.269       .  A
O48         Co53   1.996       .  S
O49          C56   1.260       .  A
O49         Co52   1.986       .  S
Co50         O54   2.061       .  S
Co51         O54   2.073       .  S
Co52         O54   2.102       .  S
Co53         O54   1.943       .  S
C55         C509   1.483       .  S
C56         C497   1.460       .  S
C57         C485   1.471       .  S
C58         C521   1.442       .  S
O59          C67   1.285       .  A
O59         Co79   1.947       .  S
O60          C68   1.260       .  A
O60         Co80   1.995       .  S
O61          C69   1.259       .  A
O61         Co81   1.949       .  S
O62          C70   1.261       .  A
O62         Co82   1.975       .  S
O63          C69   1.290       .  A
O63         Co80   2.062       .  S
O64          C70   1.261       .  A
O64         Co79   1.988       .  S
O65          C68   1.251   1_556  A
O65         Co82   1.953       .  S
O66          C67   1.291   1_554  A
O66         Co81   1.966       .  S
C67        C1720   1.462       .  S
C68         C473   1.462   1_554  S
C69         C428   1.490       .  S
C70         C377   1.476       .  S
O71          C84   1.263       .  A
O71         Co79   1.970       .  S
O72          C85   1.248       .  A
O72         Co80   1.940       .  S
O73        C1318   1.248       .  A
O73         Co81   2.018       .  S
O74          C87   1.272       .  A
O74         Co82   1.999   1_554  S
O75          C87   1.266       .  A
O75         Co80   1.965       .  S
O76        C1318   1.239       .  A
O76         Co79   1.976   1_554  S
O77          C84   1.258       .  A
O77         Co82   1.969       .  S
O78          C85   1.268       .  A
O78         Co81   2.041       .  S
Co79         O83   1.995   1_556  S
Co80         O83   2.019       .  S
Co81         O83   2.070       .  S
Co82         O83   2.026   1_556  S
C84        C1032   1.449       .  S
C85         C389   1.474       .  S
C86        O1305   1.257       .  A
C86        O1308   1.267       .  A
C86         C404   1.505       .  S
C87        C1053   1.464       .  S
O88          C96   1.281       .  A
O88        Co108   2.020       .  S
O89          C97   1.251       .  A
O89        Co109   1.961       .  S
O90          C98   1.259       .  A
O90        Co110   1.959       .  S
O91          C99   1.297       .  A
O91        Co111   1.985       .  S
O92          C98   1.282       .  A
O92        Co109   2.060       .  S
O93          C99   1.287       .  A
O93        Co108   1.971       .  S
O94          C97   1.268       .  A
O94        Co111   2.024       .  S
O95          C96   1.271       .  A
O95        Co110   1.917       .  S
C96        C1816   1.465       .  S
C97         C569   1.505       .  S
C98         C353   1.486       .  S
C99         C392   1.491       .  S
O100        C113   1.270       .  A
O100       Co108   1.991       .  S
O101        C114   1.265       .  A
O101       Co109   1.970       .  S
O102        C115   1.250       .  A
O102       Co110   1.930       .  S
O103        C116   1.291       .  A
O103       Co111   2.029       .  S
O104        C116   1.288       .  A
O104       Co109   1.994       .  S
O105        C115   1.305       .  A
O105       Co108   2.139       .  S
O106        C113   1.254       .  A
O106       Co111   2.026       .  S
O107        C114   1.266       .  A
O107       Co110   1.999       .  S
Co108       O112   1.986       .  S
Co109       O112   2.011       .  S
Co110       O112   1.947       .  S
Co111       O112   2.046       .  S
C113        C957   1.480       .  S
C114        C380   1.470       .  S
C115        C329   1.490       .  S
C116        C984   1.511       .  S
O117        C125   1.274       .  A
O117       Co137   2.052       .  S
O118        C126   1.263       .  A
O118       Co138   2.033       .  S
O119        C127   1.265   1_554  A
O119       Co139   2.009       .  S
O120        C128   1.250       .  A
O120       Co140   2.036       .  S
O121        C127   1.260       .  A
O121       Co138   1.968   1_556  S
O122        C128   1.237       .  A
O122       Co137   1.982       .  S
O123        C126   1.238       .  A
O123       Co140   1.930       .  S
O124        C125   1.246       .  A
O124       Co139   1.929       .  S
C125        C452   1.456       .  S
C126        C440   1.477       .  S
C127        C284   1.481       .  S
C128        C320   1.498       .  S
O129        C142   1.279       .  A
O129       Co137   1.946       .  S
O130        C143   1.262       .  A
O130       Co138   2.080       .  S
O131        C144   1.245       .  A
O131       Co139   1.984       .  S
O132        C145   1.277       .  A
O132       Co140   2.047       .  S
O133        C145   1.256       .  A
O133       Co138   1.965       .  S
O134        C144   1.247       .  A
O134       Co137   2.010       .  S
O135        C142   1.295       .  A
O135       Co140   2.035       .  S
O136        C143   1.225       .  A
O136       Co139   1.930       .  S
Co137       O141   1.957       .  S
Co138       O141   2.162       .  S
Co139       O141   2.045       .  S
Co140       O141   2.182       .  S
C142        C293   1.478       .  S
C143        C425   1.494       .  S
C144        C557   1.466       .  S
C145        C305   1.496       .  S
O146        C154   1.276       .  A
O146       Co166   1.993       .  S
O147        C155   1.276       .  A
O147       Co167   2.026       .  S
O148        C156   1.273       .  A
O148       Co168   2.031       .  S
O149        C157   1.286       .  A
O149       Co169   2.090       .  S
O150        C156   1.252       .  A
O150       Co167   1.960       .  S
O151        C157   1.254       .  A
O151       Co166   1.954       .  S
O152        C155   1.260       .  A
O152       Co169   1.954       .  S
O153        C154   1.266       .  A
O153       Co168   2.015       .  S
C154        C548   1.493       .  S
C155        C365   1.508       .  S
C156        C296   1.472       .  S
C157        C269   1.495       .  S
O158        C171   1.267       .  A
O158       Co166   2.023       .  S
O159        C172   1.288       .  A
O159       Co167   2.107       .  S
O160        C173   1.276       .  A
O160       Co168   2.001       .  S
O161        C174   1.270       .  A
O161       Co169   1.994       .  S
O162        C174   1.264       .  A
O162       Co167   1.983       .  S
O163        C173   1.270       .  A
O163       Co166   2.028       .  S
O164        C171   1.249       .  A
O164       Co169   1.952       .  S
O165        C172   1.249       .  A
O165       Co168   1.945       .  S
Co166       O170   2.052       .  S
Co167       O170   2.071       .  S
Co168       O170   2.029       .  S
Co169       O170   2.039       .  S
C171        C281   1.467       .  S
C172        C356   1.500       .  S
C173        C464   1.504       .  S
C174        C260   1.482       .  S
O175        C183   1.263       .  A
O175       Co811   1.913       .  S
O176        C184   1.274       .  A
O176       Co196   1.994       .  S
O177        C185   1.273       .  A
O177       Co197   1.990       .  S
O178        C186   1.252       .  A
O178       Co198   1.947       .  S
O179        C185   1.280       .  A
O179       Co196   2.022       .  S
O180        C186   1.264       .  A
O180       Co195   2.003       .  S
O181        C184   1.279       .  A
O181       Co198   2.021       .  S
O182        C799   1.268   1_545  A
O182       Co197   1.952       .  S
C183        O798   1.290       .  A
C183        C605   1.483       .  S
C184        C596   1.493       .  S
C185        C317   1.496       .  S
C186        C236   1.472       .  S
O187        C200   1.299       .  A
O187       Co195   2.084       .  S
O188        C201   1.266       .  A
O188       Co196   1.996       .  S
O189        C202   1.279       .  A
O189       Co813   2.035       .  S
O190        C203   1.254       .  A
O190       Co198   1.984       .  S
O191        C203   1.268       .  A
O191       Co196   2.024       .  S
O192        C202   1.261       .  A
O192       Co811   1.995       .  S
O193        C200   1.275       .  A
O193       Co198   1.938       .  S
O194        C201   1.265       .  A
O194       Co197   2.008       .  S
Co195       O791   2.069       .  S
Co195       O808   1.931   1_545  S
Co195       O199   2.117       .  S
Co196       O199   2.040       .  S
Co197       O805   2.040       .  S
Co197       O199   1.999       .  S
Co198       O199   1.906       .  S
C200       C1576   1.508   1_455  S
C201        C245   1.509       .  S
C202        C401   1.502       .  S
C203       C1540   1.502   1_455  S
O204        C212   1.263       .  A
O204       Co840   1.868       .  S
O205        C213   1.246       .  A
O205       Co225   1.964       .  S
O206        C214   1.266       .  A
O206       Co226   1.880       .  S
O207        C215   1.259       .  A
O207       Co227   1.946       .  S
O208        C214   1.310       .  A
O208       Co225   2.138       .  S
O209        C215   1.281       .  A
O209       Co224   2.070       .  S
O210        C213   1.236       .  A
O210       Co227   1.944       .  S
O211        C212   1.297       .  A
O211       Co842   2.097       .  S
C212        C512   1.468       .  S
C213        C500   1.436       .  S
C214        C272   1.492       .  S
C215        C248   1.495       .  S
O216       C1461   1.240   1_455  A
O216       Co224   1.929       .  S
O217        C230   1.254       .  A
O217       Co225   1.928       .  S
O218        C231   1.280       .  A
O218       Co842   2.085       .  S
O219        C232   1.266       .  A
O219       Co227   1.920       .  S
O220        C232   1.297       .  A
O220       Co225   2.088       .  S
O221        C231   1.233       .  A
O221       Co840   1.914       .  S
O222       C1461   1.249   1_455  A
O222       Co227   1.980       .  S
O223        C230   1.284       .  A
O223       Co226   2.065       .  S
Co224       O820   1.881   1_545  S
Co224       O837   1.927       .  S
Co224       O228   1.904       .  S
Co225       O228   2.070       .  S
Co226       O827   2.076       .  S
Co226       O834   2.108       .  S
Co226       O228   2.021       .  S
Co227       O228   2.075       .  S
C229       O1448   1.261       .  A
C229       O1454   1.265       .  A
C229        C413   1.470       .  S
C230        C233   1.483       .  S
C231        C332   1.476       .  S
C232       C1489   1.494   1_455  S
C233        C234   1.401       .  A
C233        C238   1.417       .  A
C234        C235   1.381       .  A
C234        H239   1.085       .  S
C235        C236   1.415       .  A
C235        C242   1.446       .  S
C236        C237   1.404       .  A
C237        C238   1.406       .  A
C237        H240   1.085       .  S
C238        C241   1.440       .  S
C241        N243   1.157   1_545  T
C242        N244   1.157       .  T
C245        C246   1.417   1_554  A
C245        C250   1.418       .  A
C246        C247   1.418       .  A
C246        H251   1.084   1_556  S
C247        C248   1.410       .  A
C247        C254   1.442       .  S
C248        C249   1.404       .  A
C249        C250   1.401   1_556  A
C249        H252   1.086       .  S
C250        C253   1.445       .  S
C253       N1487   1.157       .  T
C254        N256   1.157       .  T
N255       C1485   1.157       .  T
C257       C1464   1.493       .  S
C257        C258   1.409       .  A
C257        C262   1.416       .  A
C258        C259   1.415       .  A
C258        H263   1.084       .  S
C259        C260   1.414       .  A
C259        C266   1.442       .  S
C260        C261   1.397       .  A
C261        C262   1.395       .  A
C261        H264   1.086       .  S
C262        C265   1.442       .  S
C265        N267   1.156       .  T
C266        N268   1.157       .  T
C269        C270   1.405       .  A
C269        C274   1.423       .  A
C270        C271   1.412       .  A
C270        H275   1.085       .  S
C271        C272   1.417       .  A
C271        C278   1.442       .  S
C272        C273   1.396       .  A
C273        C274   1.403       .  A
C273        H276   1.086       .  S
C274        C277   1.441       .  S
C277        N279   1.158       .  T
C278        N280   1.157       .  T
C281        C282   1.400       .  A
C281        C286   1.410       .  A
C282        C283   1.397       .  A
C282        H287   1.084       .  S
C283        C284   1.416       .  A
C283        C290   1.445       .  S
C284        C285   1.405       .  A
C285        C286   1.401       .  A
C285        H288   1.085       .  S
C286        C289   1.444       .  S
C289        N291   1.157       .  T
C290        N292   1.157       .  T
C293        C294   1.403       .  A
C293        C298   1.415       .  A
C294        C295   1.403       .  A
C294        H299   1.085       .  S
C295        C296   1.413       .  A
C295        C302   1.444       .  S
C296        C297   1.399       .  A
C297        C298   1.396       .  A
C297        H300   1.085       .  S
C298        C301   1.445       .  S
C301        N303   1.157       .  T
C302        N304   1.157       .  T
C305        C306   1.403       .  A
C305        C310   1.417       .  A
C306        C307   1.401       .  A
C306        H311   1.085       .  S
C307        C308   1.419       .  A
C307        C314   1.447       .  S
C308       C1435   1.497       .  S
C308        C309   1.408       .  A
C309        C310   1.416       .  A
C309        H312   1.082       .  S
C310        C313   1.443       .  S
C313        N315   1.157       .  T
C314        N316   1.157       .  T
C317        C318   1.406       .  A
C317        C322   1.416       .  A
C318        C319   1.409       .  A
C318        H323   1.083       .  S
C319        C320   1.418       .  A
C319        C326   1.444       .  S
C320        C321   1.407       .  A
C321        C322   1.404       .  A
C321        H324   1.084       .  S
C322        C325   1.445       .  S
C325        N327   1.157       .  T
C326        N328   1.157       .  T
C329       C1562   1.405       .  A
C329       C1566   1.414       .  A
C330        C331   1.398   1_655  A
C330       C1561   1.397       .  A
C330       H1567   1.086       .  S
C331        C332   1.413       .  A
C331        C954   1.445       .  S
C332        C333   1.407       .  A
C333        C334   1.412       .  A
C333        H336   1.085       .  S
C334       C1561   1.415   1_455  A
C334       C1569   1.444       .  S
H335       C1562   1.085       .  S
C337       C1566   1.443       .  S
C337        N339   1.157       .  T
C338        C947   1.445       .  S
C338        N340   1.157       .  T
C341        C729   1.482       .  S
C341        C342   1.397       .  A
C341        C962   1.412       .  A
C342        C343   1.385   1_565  A
C342        H347   1.072       .  S
C343        C344   1.413       .  A
C343       C1582   1.445       .  S
C344       C1432   1.488       .  S
C344        C345   1.412       .  A
C345        C962   1.412   1_545  A
C345        H348   1.084       .  S
C346        C957   1.412       .  A
C346        C961   1.411       .  A
C346        C349   1.443       .  S
C349        N351   1.157       .  T
C350       C1575   1.440   1_565  S
C350        N352   1.157       .  T
C353        C354   1.394       .  A
C353        C358   1.413       .  A
C354        C355   1.405       .  A
C354        H359   1.086       .  S
C355        C356   1.426       .  A
C355        C362   1.436       .  S
C356        C357   1.408       .  A
C357        C358   1.409       .  A
C357        H360   1.085       .  S
C358        C361   1.442       .  S
C361        N363   1.157       .  T
C362        N364   1.156       .  T
C365        C366   1.409       .  A
C365        C370   1.425       .  A
C366        C367   1.416       .  A
C366        H371   1.084       .  S
C367        C368   1.422   1_545  A
C367        C990   1.442       .  S
C368        C732   1.507       .  S
C368        C369   1.404   1_565  A
C369        C370   1.396       .  A
C369        H372   1.085   1_545  S
C370        C373   1.447       .  S
C373        N375   1.158       .  T
C374        C983   1.442       .  S
C374        N376   1.157       .  T
C377        C378   1.409       .  A
C377        C382   1.414       .  A
C378        C379   1.407       .  A
C378        H383   1.085       .  S
C379        C380   1.408       .  A
C379        C386   1.443       .  S
C380        C381   1.399       .  A
C381        C382   1.391       .  A
C381        H384   1.086       .  S
C382        C385   1.445       .  S
C385        N387   1.157       .  T
C386        N388   1.157       .  T
C389        C390   1.408       .  A
C389        C394   1.402       .  A
C390        C391   1.400       .  A
C390        H395   1.086       .  S
C391        C392   1.411       .  A
C391        C398   1.444       .  S
C392        C393   1.416       .  A
C393        C394   1.403       .  A
C393        H396   1.084       .  S
C394        C397   1.443       .  S
C397        N399   1.157       .  T
C398        N400   1.157       .  T
C401        C402   1.411       .  A
C401        C406   1.417       .  A
C402        C403   1.414   1_455  A
C402        H407   1.083       .  S
C403        C404   1.416       .  A
C403        C410   1.441       .  S
C404       C1637   1.409       .  A
C405       C1636   1.405       .  A
C405       C1638   1.399       .  A
C405        H408   1.085       .  S
C406       C1637   1.400   1_455  A
C406        C409   1.446       .  S
C409        N411   1.158       .  T
C410        N412   1.156   1_554  T
C413        C418   1.414       .  A
C413       C1030   1.404       .  A
C414        C415   1.383       .  A
C414       C1029   1.404       .  A
C414        H419   1.084       .  S
C415       C1032   1.400       .  A
C415        C422   1.444       .  S
C416        C700   1.450   1_545  S
C416        C417   1.400       .  A
C416       C1031   1.401   1_545  A
C417        C418   1.399       .  A
C417        H420   1.083       .  S
C418        C421   1.442       .  S
C421        N423   1.157       .  T
C422        N424   1.156       .  T
C425        C426   1.415       .  A
C425        C430   1.405       .  A
C426        C427   1.392       .  A
C426        H431   1.078       .  S
C427        C428   1.403       .  A
C427        C434   1.446       .  S
C428        C429   1.420       .  A
C429        C430   1.409       .  A
C429        H432   1.084   1_554  S
C430        C433   1.442   1_554  S
C433        N435   1.157       .  T
C434        N436   1.158       .  T
C437        C703   1.464   1_545  S
C437        C438   1.405       .  A
C437        C442   1.399       .  A
C438        C439   1.399       .  A
C438        H443   1.078       .  S
C439        C440   1.407       .  A
C439        C446   1.444   1_554  S
C440        C441   1.414       .  A
C441        C442   1.394       .  A
C441        H444   1.085       .  S
C442       C1061   1.445       .  S
C445       C1058   1.445       .  S
C445        N447   1.157       .  T
C446        N448   1.157       .  T
C449        C450   1.396   1_556  A
C449        C454   1.409       .  A
C450        C451   1.384       .  A
C450        H455   1.087   1_554  S
C451        C452   1.411       .  A
C451        C458   1.444       .  S
C452        C453   1.407       .  A
C453        C454   1.406   1_554  A
C453        H456   1.084       .  S
C454        C457   1.443       .  S
C457        N459   1.157       .  T
C458        N460   1.157       .  T
C461        C462   1.418       .  A
C461        C466   1.411       .  A
C462        C463   1.422       .  A
C462        H467   1.082       .  S
C463        C464   1.412       .  A
C463        C470   1.442       .  S
C464        C465   1.409       .  A
C465        C466   1.388       .  A
C465        H468   1.079       .  S
C466        C469   1.448       .  S
C469        N471   1.157       .  T
C470        N472   1.157       .  T
C473        C474   1.402   1_556  A
C473        C478   1.413       .  A
C474        C475   1.396   1_554  A
C474        H479   1.085       .  S
C475        C476   1.405       .  A
C475        C482   1.444   1_556  S
C476        C477   1.396       .  A
C477        C478   1.391       .  A
C477        H480   1.086       .  S
C478        C481   1.445       .  S
C481        N483   1.157       .  T
C482        N484   1.157       .  T
C485        C486   1.399       .  A
C485        C490   1.420       .  A
C486        C487   1.386       .  A
C486        H491   1.084       .  S
C487        C488   1.413       .  A
C487        C494   1.445       .  S
C488       C1299   1.459   1_456  S
C488        C489   1.397       .  A
C489        C490   1.398       .  A
C489       H1724   1.085   1_456  S
C490        C493   1.445       .  S
H492       C1721   1.085       .  S
C493        N495   1.157       .  T
C494        N496   1.156       .  T
C497        C498   1.403       .  A
C497        C502   1.417       .  A
C498        C499   1.387       .  A
C498        H503   1.085       .  S
C499        C500   1.403       .  A
C499        C506   1.444       .  S
C500        C501   1.393       .  A
C501        C502   1.386       .  A
C501        H504   1.086       .  S
C502        C505   1.446       .  S
C505        N507   1.157       .  T
C506        N508   1.157       .  T
C509        C510   1.410       .  A
C509        C514   1.417       .  A
C510        C511   1.403       .  A
C510        H515   1.084       .  S
C511        C512   1.406       .  A
C511        C518   1.444       .  S
C512        C513   1.399       .  A
C513        C514   1.393       .  A
C513        H516   1.086       .  S
C514        C517   1.446       .  S
C517        N519   1.158       .  T
C518        N520   1.157       .  T
C521        C522   1.393       .  A
C521        C526   1.406       .  A
C522        C523   1.384       .  A
C522        H527   1.083       .  S
C523        C524   1.410       .  A
C523        C530   1.445       .  S
C524        C525   1.401       .  A
C525        C526   1.397       .  A
C525        H528   1.085       .  S
C526        C529   1.444       .  S
C529        N531   1.157       .  T
C530        N532   1.157       .  T
C533        C534   1.411       .  A
C533        C538   1.405       .  A
C534        C535   1.384       .  A
C534        H539   1.085       .  S
C535        C536   1.409       .  A
C535        C542   1.447       .  S
C536        C537   1.413       .  A
C537        C538   1.400       .  A
C537        H540   1.082       .  S
C538        C541   1.443       .  S
C541        N543   1.157       .  T
C542        N544   1.158       .  T
C545        C546   1.414       .  A
C545        C550   1.395       .  A
C546        C547   1.412       .  A
C546        H551   1.084       .  S
C547        C548   1.409       .  A
C547        C554   1.442       .  S
C548        C549   1.415       .  A
C549        C550   1.385       .  A
C549        H552   1.077       .  S
C550        C553   1.444       .  S
C553        N555   1.156       .  T
C554        N556   1.157       .  T
C557        C558   1.393       .  A
C557        C562   1.411       .  A
C558        C559   1.380       .  A
C558        H563   1.076       .  S
C559        C560   1.416       .  A
C559        C566   1.450       .  S
C560        C561   1.408       .  A
C561        C562   1.412       .  A
C561        H564   1.084       .  S
C562        C565   1.441       .  S
C565        N567   1.157       .  T
C566        N568   1.158       .  T
C569        C570   1.417       .  A
C569        C574   1.410       .  A
C570        C571   1.404       .  A
C570        H575   1.084       .  S
C571        C572   1.408       .  A
C571        C578   1.444       .  S
C572        C573   1.418       .  A
C573        C574   1.411       .  A
C573        H576   1.084       .  S
C574        C577   1.443       .  S
C577        N579   1.157       .  T
C578        N580   1.157       .  T
C581        C582   1.412       .  A
C581        C586   1.405       .  A
C582        C583   1.402       .  A
C582        H587   1.085       .  S
C583        C584   1.402   1_455  A
C583        C590   1.443   1_455  S
C584       C1328   1.466       .  S
C584        C585   1.408   1_655  A
C585        C586   1.388       .  A
C585        H588   1.086       .  S
C586        C589   1.445       .  S
C589        N591   1.157       .  T
C590        N592   1.157       .  T
C593        C594   1.412       .  A
C593        C598   1.416       .  A
C594        C595   1.402       .  A
C594        H599   1.085       .  S
C595        C596   1.408       .  A
C595        C602   1.445       .  S
C596        C597   1.409       .  A
C597        C598   1.416       .  A
C597        H600   1.083       .  S
C598        C601   1.443       .  S
C601        N603   1.157       .  T
C602        N604   1.157       .  T
C605        C606   1.396       .  A
C605        C610   1.415       .  A
C606        C607   1.399       .  A
C606        H611   1.086       .  S
C607        C608   1.421       .  A
C607        C614   1.447       .  S
C608        C609   1.405       .  A
C609        C610   1.414       .  A
C609        H612   1.084       .  S
C610       C1229   1.443       .  S
C613       C1226   1.441       .  S
C613        N615   1.157   1_565  T
C614        N616   1.157       .  T
O617        C625   1.256       .  A
O617       Co637   1.967       .  S
O618        C626   1.254       .  A
O618       Co638   1.965       .  S
O619        C627   1.242       .  A
O619       Co639   1.935       .  S
O620        C628   1.246       .  A
O620       Co640   1.930       .  S
O621        C627   1.258       .  A
O621       Co638   1.987       .  S
O622        C628   1.264       .  A
O622       Co637   1.998       .  S
O623        C626   1.273       .  A
O623       Co640   2.059       .  S
O624        C625   1.275       .  A
O624       Co639   2.043       .  S
C625       C1224   1.502       .  S
C626       C1209   1.506       .  S
C627       C1152   1.472       .  S
C628       C1197   1.465       .  S
O629        C642   1.291       .  A
O629       Co637   2.051       .  S
O630        C643   1.279       .  A
O630       Co638   2.023       .  S
O631        C644   1.245       .  A
O631       Co639   1.957       .  S
O632        C645   1.245       .  A
O632       Co640   1.952       .  S
O633        C645   1.267       .  A
O633       Co638   2.029       .  S
O634        C644   1.276       .  A
O634       Co637   2.061       .  S
O635        C642   1.269       .  A
O635       Co640   1.893       .  S
O636        C643   1.274       .  A
O636       Co639   1.938       .  S
Co637       O641   2.137       .  S
Co638       O641   2.125       .  S
Co639       O641   1.977       .  S
Co640       O641   1.956       .  S
C642       C1140   1.454       .  S
C643       C1176   1.474       .  S
C644       C1188   1.501       .  S
C645       C1161   1.470       .  S
O646        C654   1.263   1_556  A
O646       Co666   1.948       .  S
O647        C655   1.252       .  A
O647       Co667   1.975       .  S
O648        C656   1.238       .  A
O648       Co668   1.910       .  S
O649        C657   1.274       .  A
O649       Co669   1.887       .  S
O650        C656   1.267       .  A
O650       Co667   2.044       .  S
O651        C657   1.291       .  A
O651       Co666   2.047       .  S
O652        C655   1.250       .  A
O652       Co669   2.025       .  S
O653        C654   1.266   1_556  A
O653       Co668   1.980       .  S
C654       C1149   1.472       .  S
C655       C1077   1.502       .  S
C656       C1065   1.464       .  S
C657       C1092   1.447       .  S
O658        C671   1.254       .  A
O658       Co666   1.991       .  S
O659        C672   1.243       .  A
O659       Co667   1.932       .  S
O660        C673   1.254       .  A
O660       Co668   1.940       .  S
O661        C674   1.287       .  A
O661       Co669   2.013       .  S
O662        C674   1.269       .  A
O662       Co667   1.986       .  S
O663        C673   1.266       .  A
O663       Co666   2.000       .  S
O664        C671   1.269       .  A
O664       Co669   1.996       .  S
O665        C672   1.258       .  A
O665       Co668   1.978       .  S
Co666       O670   2.064       .  S
Co667       O670   2.073       .  S
Co668       O670   2.100       .  S
Co669       O670   1.936       .  S
C671       C1125   1.478       .  S
C672       C1113   1.459       .  S
C673       C1101   1.477       .  S
C674       C1137   1.445       .  S
O675        C683   1.283       .  A
O675       Co695   1.939       .  S
O676        C684   1.259       .  A
O676       Co696   1.993       .  S
O677        C685   1.259       .  A
O677       Co697   1.951       .  S
O678        C686   1.261       .  A
O678       Co698   1.977       .  S
O679        C685   1.291       .  A
O679       Co696   2.067       .  S
O680        C686   1.261       .  A
O680       Co695   1.989       .  S
O681        C684   1.251   1_556  A
O681       Co698   1.949       .  S
O682        C683   1.291   1_554  A
O682       Co697   1.965       .  S
C683       C2336   1.459       .  S
C684       C1089   1.460   1_554  S
C685       C1044   1.494       .  S
C686        C993   1.477       .  S
O687        C700   1.262       .  A
O687       Co695   1.969       .  S
O688        C701   1.248       .  A
O688       Co696   1.941       .  S
O689       C1934   1.249       .  A
O689       Co697   2.021       .  S
O690        C703   1.271       .  A
O690       Co698   1.997   1_554  S
O691        C703   1.267       .  A
O691       Co696   1.964       .  S
O692       C1934   1.240       .  A
O692       Co695   1.976   1_554  S
O693        C700   1.257       .  A
O693       Co698   1.970       .  S
O694        C701   1.268       .  A
O694       Co697   2.040       .  S
Co695       O699   1.993   1_556  S
Co696       O699   2.021       .  S
Co697       O699   2.071       .  S
Co698       O699   2.028   1_556  S
C701       C1005   1.474       .  S
C702       O1921   1.262       .  A
C702       O1924   1.253       .  A
C702       C1020   1.488       .  S
O704        C712   1.281       .  A
O704       Co724   2.019       .  S
O705        C713   1.250       .  A
O705       Co725   1.960       .  S
O706        C714   1.258       .  A
O706       Co726   1.958       .  S
O707        C715   1.297       .  A
O707       Co727   1.984       .  S
O708        C714   1.282       .  A
O708       Co725   2.060       .  S
O709        C715   1.287       .  A
O709       Co724   1.971       .  S
O710        C713   1.267       .  A
O710       Co727   2.019       .  S
O711        C712   1.271       .  A
O711       Co726   1.914       .  S
C712       C2432   1.461       .  S
C713       C1185   1.502       .  S
C714        C969   1.486       .  S
C715       C1008   1.490       .  S
O716        C729   1.270       .  A
O716       Co724   1.993       .  S
O717        C730   1.265       .  A
O717       Co725   1.968       .  S
O718        C731   1.251       .  A
O718       Co726   1.929       .  S
O719        C732   1.290       .  A
O719       Co727   2.025       .  S
O720        C732   1.287       .  A
O720       Co725   1.990       .  S
O721        C731   1.306       .  A
O721       Co724   2.139       .  S
O722        C729   1.254       .  A
O722       Co727   2.028       .  S
O723        C730   1.267       .  A
O723       Co726   2.004       .  S
Co724       O728   1.985       .  S
Co725       O728   2.014       .  S
Co726       O728   1.944       .  S
Co727       O728   2.047       .  S
C730        C996   1.472       .  S
C731        C945   1.490       .  S
O733        C741   1.277       .  A
O733       Co753   2.062       .  S
O734        C742   1.264       .  A
O734       Co754   2.036       .  S
O735        C743   1.265       .  A
O735       Co755   2.006   1_556  S
O736        C744   1.251       .  A
O736       Co756   2.043       .  S
O737        C743   1.260       .  A
O737       Co754   1.968   1_556  S
O738        C744   1.238       .  A
O738       Co753   1.981       .  S
O739        C742   1.238       .  A
O739       Co756   1.931       .  S
O740        C741   1.247       .  A
O740       Co755   1.932       .  S
C741       C1068   1.463       .  S
C742       C1056   1.479       .  S
C743        C900   1.477       .  S
C744        C936   1.506       .  S
O745        C758   1.280       .  A
O745       Co753   1.948       .  S
O746        C759   1.262       .  A
O746       Co754   2.085       .  S
O747        C760   1.245       .  A
O747       Co755   1.981       .  S
O748        C761   1.280       .  A
O748       Co756   2.056       .  S
O749        C761   1.257       .  A
O749       Co754   1.968       .  S
O750        C760   1.247       .  A
O750       Co753   2.010       .  S
O751        C758   1.295       .  A
O751       Co756   2.034       .  S
O752        C759   1.224       .  A
O752       Co755   1.931       .  S
Co753       O757   1.964       .  S
Co754       O757   2.167       .  S
Co755       O757   2.048       .  S
Co756       O757   2.182       .  S
C758        C909   1.483       .  S
C759       C1041   1.498       .  S
C760       C1173   1.463       .  S
C761        C921   1.503       .  S
O762        C770   1.273       .  A
O762       Co782   1.994       .  S
O763        C771   1.277       .  A
O763       Co783   2.030       .  S
O764        C772   1.275       .  A
O764       Co784   2.036       .  S
O765        C773   1.287       .  A
O765       Co785   2.084       .  S
O766        C772   1.252       .  A
O766       Co783   1.960       .  S
O767        C773   1.255       .  A
O767       Co782   1.944       .  S
O768        C771   1.261       .  A
O768       Co785   1.960       .  S
O769        C770   1.265       .  A
O769       Co784   2.015       .  S
C770       C1164   1.492       .  S
C771        C981   1.513       .  S
C772        C912   1.474       .  S
C773        C885   1.487       .  S
O774        C787   1.265       .  A
O774       Co782   2.027       .  S
O775        C788   1.288       .  A
O775       Co783   2.107       .  S
O776        C789   1.276       .  A
O776       Co784   2.003       .  S
O777        C790   1.269       .  A
O777       Co785   1.990       .  S
O778        C790   1.264       .  A
O778       Co783   1.984       .  S
O779        C789   1.270       .  A
O779       Co782   2.027       .  S
O780        C787   1.249       .  A
O780       Co785   1.954       .  S
O781        C788   1.248       .  A
O781       Co784   1.941       .  S
Co782       O786   2.055       .  S
Co783       O786   2.069       .  S
Co784       O786   2.026       .  S
Co785       O786   2.032       .  S
C787        C897   1.466       .  S
C788        C972   1.499       .  S
C789       C1080   1.507       .  S
C790        C876   1.479       .  S
O791        C799   1.283   1_545  A
O792        C800   1.255       .  A
O792       Co812   1.983       .  S
O793        C801   1.265       .  A
O793       Co813   1.911       .  S
O794        C802   1.272       .  A
O794       Co814   1.994       .  S
O795        C801   1.295       .  A
O795       Co812   2.086       .  S
O796        C802   1.272       .  A
O796       Co811   1.988       .  S
O797        C800   1.266       .  A
O797       Co814   2.030       .  S
O798       Co813   2.082       .  S
C799       C1221   1.493       .  S
C800       C1212   1.495       .  S
C801        C933   1.495       .  S
C802        C852   1.492       .  S
O803        C816   1.263       .  A
O803       Co811   2.010       .  S
O804        C817   1.270       .  A
O804       Co812   2.012       .  S
O805        C818   1.289   1_545  A
O806        C819   1.251       .  A
O806       Co814   1.912       .  S
O807        C819   1.283       .  A
O807       Co812   2.069       .  S
O808        C818   1.281       .  A
O809        C816   1.253       .  A
O809       Co814   1.985       .  S
O810        C817   1.287       .  A
O810       Co813   2.038       .  S
Co811       O815   1.993       .  S
Co812       O815   2.120       .  S
Co813       O815   2.011       .  S
Co814       O815   2.059       .  S
C816       C2192   1.492   1_455  S
C817        C861   1.506       .  S
C818       C1017   1.492       .  S
C819       C2156   1.478   1_455  S
O820        C828   1.267       .  A
O821        C829   1.243       .  A
O821       Co841   1.958       .  S
O822        C830   1.264       .  A
O822       Co842   1.865       .  S
O823        C831   1.258       .  A
O823       Co843   1.947       .  S
O824        C830   1.313       .  A
O824       Co841   2.141       .  S
O825        C831   1.280       .  A
O825       Co840   2.074       .  S
O826        C829   1.237       .  A
O826       Co843   1.949       .  S
O827        C828   1.293   1_545  A
C828       C1128   1.461       .  S
C829       C1116   1.436       .  S
C830        C888   1.490       .  S
C831        C864   1.503       .  S
O832       C2077   1.228       .  A
O832       Co840   1.910       .  S
O833        C846   1.250       .  A
O833       Co841   1.919       .  S
O834        C847   1.289       .  A
O835        C848   1.266       .  A
O835       Co843   1.922       .  S
O836        C848   1.299       .  A
O836       Co841   2.098       .  S
O837        C847   1.236       .  A
O838       C2077   1.247       .  A
O838       Co843   1.987       .  S
O839        C846   1.288       .  A
O839       Co842   2.098       .  S
Co840       O844   1.900       .  S
Co841       O844   2.055       .  S
Co842       O844   2.039       .  S
Co843       O844   2.103       .  S
C845       O2064   1.261       .  A
C845       O2070   1.264       .  A
C845       C1029   1.469       .  S
C846        C849   1.499       .  S
C847        C948   1.483   1_545  S
C848       C2105   1.501   1_455  S
C849        C850   1.408       .  A
C849        C854   1.416       .  A
C850        C851   1.387       .  A
C850        H855   1.085       .  S
C851        C852   1.414       .  A
C851        C858   1.447       .  S
C852        C853   1.413       .  A
C853        C854   1.418       .  A
C853        H856   1.084       .  S
C854        C857   1.441       .  S
C857        N859   1.157       .  T
C858        N860   1.157       .  T
C861        C862   1.416       .  A
C861        C866   1.413       .  A
C862        C863   1.419   1_554  A
C862        H867   1.084       .  S
C863        C864   1.412       .  A
C863        C870   1.441       .  S
C864        C865   1.407       .  A
C865        C866   1.402   1_556  A
C865        H868   1.085       .  S
C866        C869   1.443       .  S
C869       N2103   1.157       .  T
C870        N872   1.157       .  T
N871       C2101   1.157       .  T
C873       C2080   1.491       .  S
C873        C874   1.409       .  A
C873        C878   1.416       .  A
C874        C875   1.414       .  A
C874        H879   1.084       .  S
C875        C876   1.412       .  A
C875        C882   1.442       .  S
C876        C877   1.397       .  A
C877        C878   1.394       .  A
C877        H880   1.086       .  S
C878        C881   1.442       .  S
C881        N883   1.156       .  T
C882        N884   1.157       .  T
C885        C886   1.401       .  A
C885        C890   1.422       .  A
C886        C887   1.410       .  A
C886        H891   1.085       .  S
C887        C888   1.422       .  A
C887        C894   1.443       .  S
C888        C889   1.395       .  A
C889        C890   1.397       .  A
C889        H892   1.086       .  S
C890        C893   1.441       .  S
C893        N895   1.158       .  T
C894        N896   1.157       .  T
C897        C898   1.400       .  A
C897        C902   1.410       .  A
C898        C899   1.395       .  A
C898        H903   1.084       .  S
C899        C900   1.415       .  A
C899        C906   1.445       .  S
C900        C901   1.405       .  A
C901        C902   1.402       .  A
C901        H904   1.085       .  S
C902        C905   1.444       .  S
C905        N907   1.157       .  T
C906        N908   1.157       .  T
C909        C910   1.404       .  A
C909        C914   1.417       .  A
C910        C911   1.406       .  A
C910        H915   1.084       .  S
C911        C912   1.413       .  A
C911        C918   1.443       .  S
C912        C913   1.398       .  A
C913        C914   1.395       .  A
C913        H916   1.085       .  S
C914        C917   1.446       .  S
C917        N919   1.158       .  T
C918        N920   1.157       .  T
C921        C922   1.403       .  A
C921        C926   1.419       .  A
C922        C923   1.404       .  A
C922        H927   1.085       .  S
C923        C924   1.420       .  A
C923        C930   1.447       .  S
C924       C2051   1.504       .  S
C924        C925   1.409       .  A
C925        C926   1.419       .  A
C925        H928   1.083       .  S
C926        C929   1.442       .  S
C929        N931   1.157       .  T
C930        N932   1.157       .  T
C933        C934   1.408       .  A
C933        C938   1.411       .  A
C934        C935   1.414       .  A
C934        H939   1.084       .  S
C935        C936   1.419       .  A
C935        C942   1.443       .  S
C936        C937   1.408       .  A
C937        C938   1.403       .  A
C937        H940   1.080       .  S
C938        C941   1.445       .  S
C941        N943   1.157       .  T
C942        N944   1.157       .  T
C945       C2178   1.405       .  A
C945       C2182   1.414       .  A
C946       C2177   1.401   1_655  A
C946        C947   1.404   1_665  A
C946       H2183   1.083       .  S
C947        C948   1.416   1_545  A
C948        C949   1.403       .  A
C949        C950   1.408       .  A
C949        H952   1.084       .  S
C950       C2177   1.414       .  A
C950       C2185   1.444       .  S
H951       C2178   1.085       .  S
C953       C2182   1.443       .  S
C953        N955   1.157       .  T
C954        N956   1.157       .  T
C957        C958   1.397       .  A
C958        C959   1.384       .  A
C958        H963   1.072       .  S
C959        C960   1.412       .  A
C959       C2198   1.445       .  S
C960       C2048   1.486       .  S
C960        C961   1.412       .  A
C961        H964   1.084       .  S
C962        C965   1.443       .  S
C965        N967   1.157       .  T
C966       C2191   1.436   1_455  S
C966        N968   1.153       .  T
C969        C970   1.395       .  A
C969        C974   1.413       .  A
C970        C971   1.405       .  A
C970        H975   1.086       .  S
C971        C972   1.424       .  A
C971        C978   1.435       .  S
C972        C973   1.409       .  A
C973        C974   1.408       .  A
C973        H976   1.085       .  S
C974        C977   1.441       .  S
C977        N979   1.157       .  T
C978        N980   1.156       .  T
C981        C982   1.410       .  A
C981        C986   1.426       .  A
C982        C983   1.418       .  A
C982        H987   1.084       .  S
C983        C984   1.422       .  A
C984        C985   1.404       .  A
C985        C986   1.398       .  A
C985        H988   1.085       .  S
C986        C989   1.447       .  S
C989        N991   1.158       .  T
C990        N992   1.157   1_545  T
C993        C994   1.409       .  A
C993        C998   1.414       .  A
C994        C995   1.407       .  A
C994        H999   1.085       .  S
C995        C996   1.409       .  A
C995       C1002   1.443       .  S
C996        C997   1.399       .  A
C997        C998   1.391       .  A
C997       H1000   1.086       .  S
C998       C1001   1.445       .  S
C1001      N1003   1.157       .  T
C1002      N1004   1.157       .  T
C1005      C1006   1.408       .  A
C1005      C1010   1.402       .  A
C1006      C1007   1.400       .  A
C1006      H1011   1.086       .  S
C1007      C1008   1.411       .  A
C1007      C1014   1.444       .  S
C1008      C1009   1.416       .  A
C1009      C1010   1.403       .  A
C1009      H1012   1.084       .  S
C1010      C1013   1.443       .  S
C1013      N1015   1.157       .  T
C1014      N1016   1.157       .  T
C1017      C1018   1.411       .  A
C1017      C1022   1.411       .  A
C1018      C1019   1.397   1_455  A
C1018      H1023   1.085   1_565  S
C1019      C1020   1.411       .  A
C1019      C1026   1.446       .  S
C1020      C2253   1.411       .  A
C1021      C2252   1.405       .  A
C1021      C2254   1.401       .  A
C1021      H1024   1.085       .  S
C1022      C2253   1.407   1_455  A
C1022      C1025   1.442       .  S
C1025      N1027   1.157       .  T
C1026      N1028   1.158   1_565  T
C1029      C1034   1.414       .  A
C1030      C1031   1.382   1_545  A
C1030      H1035   1.084       .  S
C1031      C1038   1.443       .  S
C1032      C1033   1.399       .  A
C1033      C1034   1.398       .  A
C1033      H1036   1.083       .  S
C1034      C1037   1.443       .  S
C1037      N1039   1.157       .  T
C1038      N1040   1.156       .  T
C1041      C1042   1.416       .  A
C1041      C1046   1.406       .  A
C1042      C1043   1.394       .  A
C1042      H1047   1.078       .  S
C1043      C1044   1.403       .  A
C1043      C1050   1.446       .  S
C1044      C1045   1.421       .  A
C1045      C1046   1.411       .  A
C1045      H1048   1.084   1_554  S
C1046      C1049   1.442   1_554  S
C1049      N1051   1.157       .  T
C1050      N1052   1.158       .  T
C1053      C1054   1.405       .  A
C1053      C1058   1.400       .  A
C1054      C1055   1.399       .  A
C1054      H1059   1.078       .  S
C1055      C1056   1.408       .  A
C1055      C1062   1.444   1_554  S
C1056      C1057   1.414       .  A
C1057      C1058   1.394       .  A
C1057      H1060   1.085       .  S
C1061      N1063   1.157   1_545  T
C1062      N1064   1.157       .  T
C1065      C1066   1.398   1_556  A
C1065      C1070   1.408       .  A
C1066      C1067   1.388       .  A
C1066      H1071   1.087   1_554  S
C1067      C1068   1.411       .  A
C1067      C1074   1.444       .  S
C1068      C1069   1.408       .  A
C1069      C1070   1.407   1_554  A
C1069      H1072   1.081       .  S
C1070      C1073   1.443       .  S
C1073      N1075   1.157       .  T
C1074      N1076   1.157       .  T
C1077      C1078   1.418       .  A
C1077      C1082   1.411       .  A
C1078      C1079   1.422       .  A
C1078      H1083   1.082       .  S
C1079      C1080   1.412       .  A
C1079      C1086   1.442       .  S
C1080      C1081   1.410       .  A
C1081      C1082   1.390       .  A
C1081      H1084   1.078       .  S
C1082      C1085   1.448       .  S
C1085      N1087   1.158       .  T
C1086      N1088   1.157       .  T
C1089      C1090   1.402   1_556  A
C1089      C1094   1.413       .  A
C1090      C1091   1.395   1_554  A
C1090      H1095   1.085       .  S
C1091      C1092   1.406       .  A
C1091      C1098   1.444   1_556  S
C1092      C1093   1.395       .  A
C1093      C1094   1.390       .  A
C1093      H1096   1.086       .  S
C1094      C1097   1.445       .  S
C1097      N1099   1.157       .  T
C1098      N1100   1.157       .  T
C1101      C1102   1.405       .  A
C1101      C1106   1.417       .  A
C1102      C1103   1.391       .  A
C1102      H1107   1.082       .  S
C1103      C1104   1.411   1_455  A
C1103      C1110   1.447       .  S
C1104      C1915   1.465   1_556  S
C1104      C1105   1.401   1_655  A
C1105      C1106   1.395       .  A
C1105      H2340   1.085   1_455  S
C1106      C1109   1.445       .  S
H1108      C2337   1.085       .  S
C1109      N1111   1.158       .  T
C1110      N1112   1.158       .  T
C1113      C1114   1.403       .  A
C1113      C1118   1.416       .  A
C1114      C1115   1.384       .  A
C1114      H1119   1.085       .  S
C1115      C1116   1.402       .  A
C1115      C1122   1.442       .  S
C1116      C1117   1.394       .  A
C1117      C1118   1.387       .  A
C1117      H1120   1.086       .  S
C1118      C1121   1.446       .  S
C1121      N1123   1.157       .  T
C1122      N1124   1.156       .  T
C1125      C1126   1.406       .  A
C1125      C1130   1.419       .  A
C1126      C1127   1.398       .  A
C1126      H1131   1.085       .  S
C1127      C1128   1.407       .  A
C1127      C1134   1.442       .  S
C1128      C1129   1.397       .  A
C1129      C1130   1.394       .  A
C1129      H1132   1.086       .  S
C1130      C1133   1.445       .  S
C1133      N1135   1.158       .  T
C1134      N1136   1.157       .  T
C1137      C1138   1.393       .  A
C1137      C1142   1.407       .  A
C1138      C1139   1.386       .  A
C1138      H1143   1.083       .  S
C1139      C1140   1.410       .  A
C1139      C1146   1.445       .  S
C1140      C1141   1.401       .  A
C1141      C1142   1.398       .  A
C1141      H1144   1.085       .  S
C1142      C1145   1.444       .  S
C1145      N1147   1.157       .  T
C1146      N1148   1.157       .  T
C1149      C1150   1.412       .  A
C1149      C1154   1.403       .  A
C1150      C1151   1.384       .  A
C1150      H1155   1.085       .  S
C1151      C1152   1.407       .  A
C1151      C1158   1.447       .  S
C1152      C1153   1.413       .  A
C1153      C1154   1.398       .  A
C1153      H1156   1.080       .  S
C1154      C1157   1.443       .  S
C1157      N1159   1.157       .  T
C1158      N1160   1.157       .  T
C1161      C1162   1.413       .  A
C1161      C1166   1.395       .  A
C1162      C1163   1.412       .  A
C1162      H1167   1.085       .  S
C1163      C1164   1.409       .  A
C1163      C1170   1.442       .  S
C1164      C1165   1.414       .  A
C1165      C1166   1.385       .  A
C1165      H1168   1.078       .  S
C1166      C1169   1.445       .  S
C1169      N1171   1.156       .  T
C1170      N1172   1.157       .  T
C1173      C1174   1.392       .  A
C1173      C1178   1.411       .  A
C1174      C1175   1.379       .  A
C1174      H1179   1.077       .  S
C1175      C1176   1.417       .  A
C1175      C1182   1.450       .  S
C1176      C1177   1.407       .  A
C1177      C1178   1.410       .  A
C1177      H1180   1.084       .  S
C1178      C1181   1.441       .  S
C1181      N1183   1.157       .  T
C1182      N1184   1.157       .  T
C1185      C1186   1.417       .  A
C1185      C1190   1.409       .  A
C1186      C1187   1.404       .  A
C1186      H1191   1.084       .  S
C1187      C1188   1.408       .  A
C1187      C1194   1.444       .  S
C1188      C1189   1.418       .  A
C1189      C1190   1.409       .  A
C1189      H1192   1.084       .  S
C1190      C1193   1.443       .  S
C1193      N1195   1.157       .  T
C1194      N1196   1.157       .  T
C1197      C1198   1.413       .  A
C1197      C1202   1.403       .  A
C1198      C1199   1.400       .  A
C1198      H1203   1.085       .  S
C1199      C1200   1.401   1_455  A
C1199      C1206   1.443   1_455  S
C1200      C1944   1.462       .  S
C1200      C1201   1.408   1_655  A
C1201      C1202   1.387       .  A
C1201      H1204   1.085       .  S
C1202      C1205   1.444       .  S
C1205      N1207   1.157       .  T
C1206      N1208   1.157       .  T
C1209      C1210   1.412       .  A
C1209      C1214   1.417       .  A
C1210      C1211   1.404       .  A
C1210      H1215   1.085       .  S
C1211      C1212   1.409       .  A
C1211      C1218   1.445       .  S
C1212      C1213   1.408       .  A
C1213      C1214   1.415       .  A
C1213      H1216   1.082       .  S
C1214      C1217   1.443       .  S
C1217      N1219   1.157       .  T
C1218      N1220   1.157       .  T
C1221      C1222   1.400       .  A
C1221      C1226   1.416       .  A
C1222      C1223   1.403       .  A
C1222      H1227   1.085       .  S
C1223      C1224   1.422       .  A
C1223      C1230   1.446       .  S
C1224      C1225   1.407       .  A
C1225      C1226   1.417       .  A
C1225      H1228   1.084       .  S
C1229      N1231   1.157       .  T
C1230      N1232   1.157       .  T
O1233      C1241   1.251       .  A
O1233     Co1253   1.946       .  S
O1234      C1242   1.247       .  A
O1234     Co1254   1.962       .  S
O1235      C1243   1.253       .  A
O1235     Co1255   1.963       .  S
O1236      C1244   1.248       .  A
O1236     Co1256   1.941       .  S
O1237      C1243   1.259       .  A
O1237     Co1254   1.976       .  S
O1238      C1244   1.263       .  A
O1238     Co1253   1.992       .  S
O1239      C1242   1.261       .  A
O1239     Co1256   2.046       .  S
O1240      C1241   1.277       .  A
O1240     Co1255   2.052       .  S
C1241      C1840   1.494       .  S
C1242      C1825   1.500       .  S
C1243      C1768   1.481       .  S
C1244      C1813   1.466       .  S
O1245      C1258   1.290       .  A
O1245     Co1253   2.056       .  S
O1246      C1259   1.293       .  A
O1246     Co1254   2.073       .  S
O1247      C1260   1.252       .  A
O1247     Co1255   1.949       .  S
O1248      C1261   1.250       .  A
O1248     Co1256   1.930       .  S
O1249      C1261   1.287       .  A
O1249     Co1254   2.078       .  S
O1250      C1260   1.278       .  A
O1250     Co1253   2.057       .  S
O1251      C1258   1.262       .  A
O1251     Co1256   1.880       .  S
O1252      C1259   1.268       .  A
O1252     Co1255   1.897       .  S
Co1253     O1257   2.124       .  S
Co1254     O1257   2.098       .  S
Co1255     O1257   1.973       .  S
Co1256     O1257   1.966       .  S
C1258      C1756   1.450       .  S
C1259      C1792   1.473       .  S
C1260      C1804   1.505       .  S
C1261      C1777   1.492       .  S
O1262      C1270   1.262   1_556  A
O1262     Co1282   1.919       .  S
O1263      C1271   1.255       .  A
O1263     Co1283   1.984       .  S
O1264      C1272   1.247       .  A
O1264     Co1284   1.925       .  S
O1265      C1273   1.269       .  A
O1265     Co1285   1.885       .  S
O1266      C1272   1.268       .  A
O1266     Co1283   2.027       .  S
O1267      C1273   1.296       .  A
O1267     Co1282   2.059       .  S
O1268      C1271   1.248       .  A
O1268     Co1285   2.003       .  S
O1269      C1270   1.279       .  A
O1269     Co1284   2.026   1_554  S
C1270      C1765   1.477       .  S
C1271      C1693   1.493       .  S
C1272      C1681   1.455       .  S
C1273      C1708   1.445       .  S
O1274      C1287   1.257       .  A
O1274     Co1282   2.004       .  S
O1275      C1288   1.249       .  A
O1275     Co1283   1.947       .  S
O1276      C1289   1.251       .  A
O1276     Co1284   1.936       .  S
O1277      C1290   1.285       .  A
O1277     Co1285   2.013       .  S
O1278      C1290   1.269       .  A
O1278     Co1283   1.988       .  S
O1279      C1289   1.263       .  A
O1279     Co1282   1.994       .  S
O1280      C1287   1.266       .  A
O1280     Co1285   1.987       .  S
O1281      C1288   1.259       .  A
O1281     Co1284   1.981       .  S
Co1282     O1286   2.048       .  S
Co1283     O1286   2.057       .  S
Co1284     O1286   2.115       .  S
Co1285     O1286   1.926       .  S
C1287      C1741   1.475       .  S
C1288      C1729   1.468       .  S
C1289      C1717   1.467       .  S
C1290      C1753   1.444       .  S
O1291      C1299   1.276   1_556  A
O1291     Co1311   2.018       .  S
O1292      C1300   1.242   1_554  A
O1292     Co1312   1.934       .  S
O1293      C1301   1.259       .  A
O1293     Co1313   1.954       .  S
O1294      C1302   1.262       .  A
O1294     Co1314   1.979       .  S
O1295      C1301   1.285       .  A
O1295     Co1312   2.048       .  S
O1296      C1302   1.258       .  A
O1296     Co1311   1.966       .  S
O1297      C1300   1.255       .  A
O1297     Co1314   1.995       .  S
O1298      C1299   1.265       .  A
O1298     Co1313   1.910       .  S
C1300      C1705   1.457       .  S
C1301      C1660   1.500       .  S
C1302      C1609   1.480       .  S
O1303      C1316   1.253       .  A
O1303     Co1311   1.851       .  S
O1304      C1317   1.250       .  A
O1304     Co1312   1.929       .  S
O1305     Co1313   1.975       .  S
O1306      C1319   1.253       .  A
O1306     Co1314   1.912   1_554  S
O1307      C1319   1.288       .  A
O1307     Co1312   2.085       .  S
O1308     Co1311   2.039   1_554  S
O1309      C1316   1.280       .  A
O1309     Co1314   2.029       .  S
O1310      C1317   1.267       .  A
O1310     Co1313   2.012       .  S
Co1311     O1315   1.943   1_556  S
Co1312     O1315   1.989       .  S
Co1313     O1315   1.969       .  S
Co1314     O1315   2.113   1_556  S
C1316      C2264   1.443       .  S
C1317      C1621   1.451       .  S
C1318      C1636   1.481       .  S
C1319      C2285   1.501       .  S
O1320      C1328   1.280       .  A
O1320     Co1340   2.017       .  S
O1321      C1329   1.249       .  A
O1321     Co1341   1.964       .  S
O1322      C1330   1.259       .  A
O1322     Co1342   1.961       .  S
O1323      C1331   1.291       .  A
O1323     Co1343   1.951       .  S
O1324      C1330   1.284       .  A
O1324     Co1341   2.066       .  S
O1325      C1331   1.284       .  A
O1325     Co1340   1.951       .  S
O1326      C1329   1.266       .  A
O1326     Co1343   2.025       .  S
O1327      C1328   1.272       .  A
O1327     Co1342   1.922       .  S
C1329      C1801   1.507       .  S
C1330      C1585   1.491       .  S
C1331      C1624   1.464       .  S
O1332      C1345   1.270       .  A
O1332     Co1340   2.001       .  S
O1333      C1346   1.264       .  A
O1333     Co1341   1.963       .  S
O1334      C1347   1.255       .  A
O1334     Co1342   1.939       .  S
O1335      C1348   1.288       .  A
O1335     Co1343   2.021       .  S
O1336      C1348   1.289       .  A
O1336     Co1341   1.998       .  S
O1337      C1347   1.304       .  A
O1337     Co1340   2.122       .  S
O1338      C1345   1.255       .  A
O1338     Co1343   2.030       .  S
O1339      C1346   1.268       .  A
O1339     Co1342   2.003       .  S
Co1340     O1344   1.974       .  S
Co1341     O1344   2.018       .  S
Co1342     O1344   1.955       .  S
Co1343     O1344   2.038       .  S
C1345      C2189   1.489       .  S
C1346      C1612   1.474       .  S
C1347      C1561   1.488       .  S
C1348      C2216   1.509       .  S
O1349      C1357   1.272       .  A
O1349     Co1369   1.952       .  S
O1350      C1358   1.271       .  A
O1350     Co1370   1.996       .  S
O1351      C1359   1.276   1_554  A
O1351     Co1371   2.071       .  S
O1352      C1360   1.286       .  A
O1352     Co1372   2.082       .  S
O1353      C1359   1.257   1_554  A
O1353     Co1370   1.980       .  S
O1354      C1360   1.254       .  A
O1354     Co1369   1.941       .  S
O1355      C1358   1.265       .  A
O1355     Co1372   1.972       .  S
O1356      C1357   1.273       .  A
O1356     Co1371   2.034       .  S
C1357      C1684   1.476       .  S
C1358      C1672   1.491       .  S
C1359      C1516   1.514       .  S
C1360      C1552   1.505       .  S
O1361      C1374   1.273       .  A
O1361     Co1369   2.053       .  S
O1362      C1375   1.283       .  A
O1362     Co1370   2.095       .  S
O1363      C1376   1.262       .  A
O1363     Co1371   1.936       .  S
O1364      C1377   1.270       .  A
O1364     Co1372   1.993       .  S
O1365      C1377   1.265       .  A
O1365     Co1370   1.983       .  S
O1366      C1376   1.279       .  A
O1366     Co1369   2.068       .  S
O1367      C1374   1.255       .  A
O1367     Co1372   1.967       .  S
O1368      C1375   1.244       .  A
O1368     Co1371   1.935       .  S
Co1369     O1373   2.045       .  S
Co1370     O1373   2.072       .  S
Co1371     O1373   1.996       .  S
Co1372     O1373   2.046       .  S
C1374      C1525   1.500       .  S
C1375      C1657   1.505       .  S
C1376      C1789   1.473       .  S
C1377      C1537   1.483       .  S
O1378      C1386   1.277       .  A
O1378     Co1398   2.001       .  S
O1379      C1387   1.276       .  A
O1379     Co1399   2.022       .  S
O1380      C1388   1.275       .  A
O1380     Co1400   2.049       .  S
O1381      C1389   1.288       .  A
O1381     Co1401   2.092       .  S
O1382      C1388   1.255       .  A
O1382     Co1399   1.978       .  S
O1383      C1389   1.255       .  A
O1383     Co1398   1.949       .  S
O1384      C1387   1.264       .  A
O1384     Co1401   1.969       .  S
O1385      C1386   1.262       .  A
O1385     Co1400   2.002       .  S
C1386      C1780   1.498       .  S
C1387      C1597   1.509       .  S
C1388      C1528   1.498       .  S
C1389      C1501   1.498       .  S
O1390      C1403   1.275       .  A
O1390     Co1398   2.060       .  S
O1391      C1404   1.289       .  A
O1391     Co1399   2.115       .  S
O1392      C1405   1.278       .  A
O1392     Co1400   2.004       .  S
O1393      C1406   1.271       .  A
O1393     Co1401   1.996       .  S
O1394      C1406   1.265       .  A
O1394     Co1399   1.985       .  S
O1395      C1405   1.267       .  A
O1395     Co1398   2.010       .  S
O1396      C1403   1.257       .  A
O1396     Co1401   1.986       .  S
O1397      C1404   1.245       .  A
O1397     Co1400   1.944       .  S
Co1398     O1402   2.047       .  S
Co1399     O1402   2.078       .  S
Co1400     O1402   2.024       .  S
Co1401     O1402   2.048       .  S
C1403      C1513   1.508       .  S
C1404      C1588   1.502       .  S
C1405      C1696   1.497       .  S
C1406      C1492   1.482       .  S
O1407      C1415   1.261       .  A
O1407     Co2043   1.916       .  S
O1408      C1416   1.254       .  A
O1408     Co1428   1.979       .  S
O1409      C1417   1.262       .  A
O1409     Co1429   1.885       .  S
O1410      C1418   1.272       .  A
O1410     Co1430   2.001       .  S
O1411      C1417   1.301       .  A
O1411     Co1428   2.108       .  S
O1412      C1418   1.273       .  A
O1412     Co1427   1.990       .  S
O1413      C1416   1.265       .  A
O1413     Co1430   2.021       .  S
O1414      C2031   1.290       .  A
O1414     Co1429   2.088       .  S
C1415      O2030   1.290       .  A
C1415      C1837   1.486       .  S
C1416      C1828   1.485       .  S
C1417      C1549   1.487       .  S
C1418      C1468   1.497       .  S
O1419      C1432   1.259       .  A
O1419     Co1427   1.990       .  S
O1420      C1433   1.270       .  A
O1420     Co1428   2.019       .  S
O1421      C1434   1.275       .  A
O1421     Co2045   2.005       .  S
O1422      C1435   1.253       .  A
O1422     Co1430   1.926       .  S
O1423      C1435   1.288       .  A
O1423     Co1428   2.086       .  S
O1424      C1434   1.261       .  A
O1424     Co2043   1.997       .  S
O1425      C1432   1.256       .  A
O1425     Co1430   1.983       .  S
O1426      C1433   1.287       .  A
O1426     Co1429   2.046       .  S
Co1427     O2023   1.907       .  S
Co1427     O2040   1.998       .  S
Co1427     O1431   1.981       .  S
Co1428     O1431   2.121       .  S
Co1429     O2037   2.010       .  S
Co1429     O1431   2.003       .  S
Co1430     O1431   2.062       .  S
C1433      C1477   1.517       .  S
C1434      C1633   1.487       .  S
O1436      C1444   1.269       .  A
O1436     Co2072   1.846       .  S
O1437      C1445   1.298       .  A
O1437     Co1457   2.060       .  S
O1438      C1446   1.270       .  A
O1438     Co1458   1.869       .  S
O1439      C1447   1.255       .  A
O1439     Co1459   1.989       .  S
O1440      C1446   1.318       .  A
O1440     Co1457   2.143       .  S
O1441      C1447   1.266       .  A
O1441     Co1456   2.044       .  S
O1442      C1445   1.269       .  A
O1442     Co1459   1.876       .  S
O1443      C1444   1.304       .  A
O1443     Co2074   2.108       .  S
C1444      C1744   1.461       .  S
C1445      C1732   1.454       .  S
C1446      C1504   1.510       .  S
C1447      C1480   1.511       .  S
O1448     Co1456   1.943       .  S
O1449      C1462   1.254       .  A
O1449     Co1457   1.953       .  S
O1450      C1463   1.291       .  A
O1450     Co2074   2.077       .  S
O1451      C1464   1.252       .  A
O1451     Co1459   1.938       .  S
O1452      C1464   1.273       .  A
O1452     Co1457   2.048       .  S
O1453      C1463   1.252       .  A
O1453     Co2072   1.953       .  S
O1454     Co1459   1.990       .  S
O1455      C1462   1.285       .  A
O1455     Co1458   2.057       .  S
Co1456     O2052   1.851   1_545  S
Co1456     O2069   1.953       .  S
Co1456     O1460   1.929       .  S
Co1457     O1460   2.151       .  S
Co1458     O2059   2.115       .  S
Co1458     O2066   2.074       .  S
Co1458     O1460   1.964       .  S
Co1459     O1460   1.929       .  S
C1461      C1645   1.451       .  S
C1462      C1465   1.500       .  S
C1463      C1564   1.482       .  S
C1465      C1466   1.408       .  A
C1465      C1470   1.415       .  A
C1466      C1467   1.394       .  A
C1466      H1471   1.085       .  S
C1467      C1468   1.416       .  A
C1467      C1474   1.447       .  S
C1468      C1469   1.413       .  A
C1469      C1470   1.418       .  A
C1469      H1472   1.084       .  S
C1470      C1473   1.442       .  S
C1473      N1475   1.157       .  T
C1474      N1476   1.157       .  T
C1477      C1478   1.415       .  A
C1477      C1482   1.415       .  A
C1478      C1479   1.420   1_554  A
C1478      H1483   1.084       .  S
C1479      C1480   1.414       .  A
C1479      C1486   1.441       .  S
C1480      C1481   1.408       .  A
C1481      C1482   1.412   1_556  A
C1481      H1484   1.083       .  S
C1482      C1485   1.444       .  S
C1486      N1488   1.157       .  T
C1489      C1490   1.409       .  A
C1489      C1494   1.420       .  A
C1490      C1491   1.415       .  A
C1490      H1495   1.084       .  S
C1491      C1492   1.414       .  A
C1491      C1498   1.441       .  S
C1492      C1493   1.396       .  A
C1493      C1494   1.394       .  A
C1493      H1496   1.084       .  S
C1494      C1497   1.446       .  S
C1497      N1499   1.157       .  T
C1498      N1500   1.157       .  T
C1501      C1502   1.402       .  A
C1501      C1506   1.422       .  A
C1502      C1503   1.414       .  A
C1502      H1507   1.085       .  S
C1503      C1504   1.428       .  A
C1503      C1510   1.443       .  S
C1504      C1505   1.401       .  A
C1505      C1506   1.404       .  A
C1505      H1508   1.085       .  S
C1506      C1509   1.442       .  S
C1509      N1511   1.158       .  T
C1510      N1512   1.157       .  T
C1513      C1514   1.412       .  A
C1513      C1518   1.412       .  A
C1514      C1515   1.417       .  A
C1514      H1519   1.084       .  S
C1515      C1516   1.416       .  A
C1515      C1522   1.441       .  S
C1516      C1517   1.413       .  A
C1517      C1518   1.412       .  A
C1517      H1520   1.085       .  S
C1518      C1521   1.443       .  S
C1521      N1523   1.157       .  T
C1522      N1524   1.157       .  T
C1525      C1526   1.405       .  A
C1525      C1530   1.420       .  A
C1526      C1527   1.413       .  A
C1526      H1531   1.084       .  S
C1527      C1528   1.420       .  A
C1527      C1534   1.443       .  S
C1528      C1529   1.401       .  A
C1529      C1530   1.405       .  A
C1529      H1532   1.084       .  S
C1530      C1533   1.443       .  S
C1533      N1535   1.157       .  T
C1534      N1536   1.157       .  T
C1537      C1538   1.400       .  A
C1537      C1542   1.410       .  A
C1538      C1539   1.402       .  A
C1538      H1543   1.086       .  S
C1539      C1540   1.423       .  A
C1539      C1546   1.445       .  S
C1540      C1541   1.411       .  A
C1541      C1542   1.408       .  A
C1541      H1544   1.084       .  S
C1542      C1545   1.443       .  S
C1545      N1547   1.157       .  T
C1546      N1548   1.157       .  T
C1549      C1550   1.410       .  A
C1549      C1554   1.405       .  A
C1550      C1551   1.413       .  A
C1550      H1555   1.084       .  S
C1551      C1552   1.415       .  A
C1551      C1558   1.442       .  S
C1552      C1553   1.416       .  A
C1553      C1554   1.399       .  A
C1553      H1556   1.084       .  S
C1554      C1557   1.445       .  S
C1557      N1559   1.157       .  T
C1558      N1560   1.157       .  T
C1562      C1563   1.404       .  A
C1563      C1564   1.411       .  A
C1563      C2186   1.444       .  S
C1564      C1565   1.404       .  A
C1565      C1566   1.409       .  A
C1565      H1568   1.084       .  S
C1569      N1571   1.157       .  T
C1570      C2179   1.444   1_545  S
C1570      N1572   1.157       .  T
C1573      C1961   1.513       .  S
C1573      C1574   1.405       .  A
C1573      C2194   1.418   1_565  A
C1574      C1575   1.395   1_665  A
C1574      H1579   1.085       .  S
C1575      C1576   1.416   1_455  A
C1576      C1577   1.414       .  A
C1577      C2194   1.425       .  A
C1577      H1580   1.084       .  S
C1578      C2189   1.417       .  A
C1578      C2193   1.418       .  A
C1578      C1581   1.443       .  S
C1581      N1583   1.157       .  T
C1582      N1584   1.157       .  T
C1585      C1586   1.394       .  A
C1585      C1590   1.415       .  A
C1586      C1587   1.408       .  A
C1586      H1591   1.085       .  S
C1587      C1588   1.429       .  A
C1587      C1594   1.438       .  S
C1588      C1589   1.406       .  A
C1589      C1590   1.410       .  A
C1589      H1592   1.084       .  S
C1590      C1593   1.440       .  S
C1593      N1595   1.156       .  T
C1594      N1596   1.157       .  T
C1597      C1598   1.410       .  A
C1597      C1602   1.424       .  A
C1598      C1599   1.416       .  A
C1598      H1603   1.084       .  S
C1599      C1600   1.421       .  A
C1599      C2222   1.443       .  S
C1600      C1964   1.509   1_545  S
C1600      C1601   1.405       .  A
C1601      C1602   1.399       .  A
C1601      H1604   1.085   1_545  S
C1602      C1605   1.446       .  S
C1605      N1607   1.158       .  T
C1606      C2215   1.443       .  S
C1606      N1608   1.157       .  T
C1609      C1610   1.412       .  A
C1609      C1614   1.412       .  A
C1610      C1611   1.404       .  A
C1610      H1615   1.085       .  S
C1611      C1612   1.407       .  A
C1611      C1618   1.443       .  S
C1612      C1613   1.403       .  A
C1613      C1614   1.394       .  A
C1613      H1616   1.085       .  S
C1614      C1617   1.444       .  S
C1617      N1619   1.157       .  T
C1618      N1620   1.158       .  T
C1621      C1622   1.404       .  A
C1621      C1626   1.400       .  A
C1622      C1623   1.387       .  A
C1622      H1627   1.086       .  S
C1623      C1624   1.407       .  A
C1623      C1630   1.445       .  S
C1624      C1625   1.412       .  A
C1625      C1626   1.392       .  A
C1625      H1628   1.085       .  S
C1626      C1629   1.445       .  S
C1629      N1631   1.157       .  T
C1630      N1632   1.157       .  T
C1633      C1634   1.406       .  A
C1633      C1638   1.416       .  A
C1634      C1635   1.400       .  A
C1634      H1639   1.081       .  S
C1635      C1636   1.412       .  A
C1635      C1642   1.443       .  S
C1637      H1640   1.083       .  S
C1638      C1641   1.446       .  S
C1641      N1643   1.158       .  T
C1642      N1644   1.157   1_554  T
C1645      C2262   1.396   1_545  A
C1645      C1650   1.409       .  A
C1646      C2261   1.401       .  A
C1646      C1647   1.371       .  A
C1646      H1651   1.085   1_655  S
C1647      C2264   1.406       .  A
C1647      C1654   1.446       .  S
C1648      C1932   1.438       .  S
C1648      C2263   1.408       .  A
C1648      C1649   1.401   1_565  A
C1649      C1650   1.399       .  A
C1649      H1652   1.085       .  S
C1650      C1653   1.443       .  S
C1653      N1655   1.157       .  T
C1654      N1656   1.157       .  T
C1657      C1658   1.413       .  A
C1657      C1662   1.410       .  A
C1658      C1659   1.394       .  A
C1658      H1663   1.081       .  S
C1659      C1660   1.409       .  A
C1659      C1666   1.446       .  S
C1660      C1661   1.418       .  A
C1661      C1662   1.416       .  A
C1661      H1664   1.084   1_554  S
C1662      C1665   1.442       .  S
C1665      N1667   1.157   1_554  T
C1666      N1668   1.158       .  T
C1669      C1935   1.483       .  S
C1669      C1670   1.406   1_565  A
C1669      C1674   1.409   1_565  A
C1670      C1671   1.402       .  A
C1670      H1675   1.085   1_554  S
C1671      C1672   1.414       .  A
C1671      C1678   1.444   1_554  S
C1672      C1673   1.411       .  A
C1673      C1674   1.403       .  A
C1673      H1676   1.085       .  S
C1674      C2293   1.444   1_545  S
C1677      C2290   1.442       .  S
C1677      N1679   1.157       .  T
C1678      N1680   1.157       .  T
C1681      C1682   1.383       .  A
C1681      C1686   1.411   1_556  A
C1682      C1683   1.383   1_556  A
C1682      H1687   1.087       .  S
C1683      C1684   1.423       .  A
C1683      C1690   1.442       .  S
C1684      C1685   1.405       .  A
C1685      C1686   1.408       .  A
C1685      H1688   1.084       .  S
C1686      C1689   1.443       .  S
C1689      N1691   1.157       .  T
C1690      N1692   1.157   1_554  T
C1693      C1694   1.420       .  A
C1693      C1698   1.407       .  A
C1694      C1695   1.419       .  A
C1694      H1699   1.081       .  S
C1695      C1696   1.406       .  A
C1695      C1702   1.441       .  S
C1696      C1697   1.408       .  A
C1697      C1698   1.382       .  A
C1697      H1700   1.076       .  S
C1698      C1701   1.445       .  S
C1701      N1703   1.156       .  T
C1702      N1704   1.157       .  T
C1705      C1706   1.400       .  A
C1705      C1710   1.414       .  A
C1706      C1707   1.394       .  A
C1706      H1711   1.085       .  S
C1707      C1708   1.406       .  A
C1707      C1714   1.445       .  S
C1708      C1709   1.395       .  A
C1709      C1710   1.390       .  A
C1709      H1712   1.086       .  S
C1710      C1713   1.446       .  S
C1713      N1715   1.157       .  T
C1714      N1716   1.157       .  T
C1717      C1718   1.402       .  A
C1717      C1722   1.413       .  A
C1718      C1719   1.387       .  A
C1718      H1723   1.083       .  S
C1719      C1720   1.411       .  A
C1719      C1726   1.446       .  S
C1720      C1721   1.403       .  A
C1721      C1722   1.393       .  A
C1722      C1725   1.445       .  S
C1725      N1727   1.158       .  T
C1726      N1728   1.157       .  T
C1729      C1730   1.406       .  A
C1729      C1734   1.414       .  A
C1730      C1731   1.392       .  A
C1730      H1735   1.085       .  S
C1731      C1732   1.405       .  A
C1731      C1738   1.441       .  S
C1732      C1733   1.399       .  A
C1733      C1734   1.388       .  A
C1733      H1736   1.086       .  S
C1734      C1737   1.446       .  S
C1737      N1739   1.157       .  T
C1738      N1740   1.156       .  T
C1741      C1742   1.409       .  A
C1741      C1746   1.415       .  A
C1742      C1743   1.401       .  A
C1742      H1747   1.085       .  S
C1743      C1744   1.405       .  A
C1743      C1750   1.443       .  S
C1744      C1745   1.399       .  A
C1745      C1746   1.389       .  A
C1745      H1748   1.086       .  S
C1746      C1749   1.446       .  S
C1749      N1751   1.158       .  T
C1750      N1752   1.157       .  T
C1753      C1754   1.395       .  A
C1753      C1758   1.404       .  A
C1754      C1755   1.386       .  A
C1754      H1759   1.080       .  S
C1755      C1756   1.406       .  A
C1755      C1762   1.444       .  S
C1756      C1757   1.402       .  A
C1757      C1758   1.396       .  A
C1757      H1760   1.085       .  S
C1758      C1761   1.444       .  S
C1761      N1763   1.157       .  T
C1762      N1764   1.156       .  T
C1765      C1766   1.409       .  A
C1765      C1770   1.406       .  A
C1766      C1767   1.393       .  A
C1766      H1771   1.085       .  S
C1767      C1768   1.410       .  A
C1767      C1774   1.445       .  S
C1768      C1769   1.413       .  A
C1769      C1770   1.397       .  A
C1769      H1772   1.084       .  S
C1770      C1773   1.444       .  S
C1773      N1775   1.157       .  T
C1774      N1776   1.157       .  T
C1777      C1778   1.419       .  A
C1777      C1782   1.399       .  A
C1778      C1779   1.408       .  A
C1778      H1783   1.082       .  S
C1779      C1780   1.405       .  A
C1779      C1786   1.443       .  S
C1780      C1781   1.419       .  A
C1781      C1782   1.400       .  A
C1781      H1784   1.077       .  S
C1782      C1785   1.445       .  S
C1785      N1787   1.157       .  T
C1786      N1788   1.157       .  T
C1789      C1790   1.398       .  A
C1789      C1794   1.413       .  A
C1790      C1791   1.393       .  A
C1790      H1795   1.084       .  S
C1791      C1792   1.412       .  A
C1791      C1798   1.444       .  S
C1792      C1793   1.402       .  A
C1793      C1794   1.407       .  A
C1793      H1796   1.085       .  S
C1794      C1797   1.439       .  S
C1797      N1799   1.157       .  T
C1798      N1800   1.157       .  T
C1801      C1802   1.415       .  A
C1801      C1806   1.412       .  A
C1802      C1803   1.403       .  A
C1802      H1807   1.084       .  S
C1803      C1804   1.410       .  A
C1803      C1810   1.444       .  S
C1804      C1805   1.417       .  A
C1805      C1806   1.413       .  A
C1805      H1808   1.084       .  S
C1806      C1809   1.443       .  S
C1809      N1811   1.157       .  T
C1810      N1812   1.157       .  T
C1813      C1814   1.412       .  A
C1813      C1818   1.404       .  A
C1814      C1815   1.401       .  A
C1814      H1819   1.085       .  S
C1815      C1816   1.401       .  A
C1815      C1822   1.443       .  S
C1816      C1817   1.408       .  A
C1817      C1818   1.387       .  A
C1817      H1820   1.086       .  S
C1818      C1821   1.445       .  S
C1821      N1823   1.157       .  T
C1822      N1824   1.157       .  T
C1825      C1826   1.411       .  A
C1825      C1830   1.416       .  A
C1826      C1827   1.398       .  A
C1826      H1831   1.084       .  S
C1827      C1828   1.406       .  A
C1827      C1834   1.445       .  S
C1828      C1829   1.408       .  A
C1829      C1830   1.414       .  A
C1829      H1832   1.084       .  S
C1830      C1833   1.443       .  S
C1833      N1835   1.157       .  T
C1834      N1836   1.157       .  T
C1837      C1838   1.396       .  A
C1837      C1842   1.415       .  A
C1838      C1839   1.400       .  A
C1838      H1843   1.086       .  S
C1839      C1840   1.422       .  A
C1839      C1846   1.445       .  S
C1840      C1841   1.406       .  A
C1841      C1842   1.415       .  A
C1841      H1844   1.084       .  S
C1842      C2461   1.443       .  S
C1845      C2458   1.443   1_545  S
C1845      N1847   1.157       .  T
C1846      N1848   1.157       .  T
O1849      C1857   1.251       .  A
O1849     Co1869   1.947       .  S
O1850      C1858   1.246       .  A
O1850     Co1870   1.961       .  S
O1851      C1859   1.256       .  A
O1851     Co1871   1.975       .  S
O1852      C1860   1.248       .  A
O1852     Co1872   1.934       .  S
O1853      C1859   1.256       .  A
O1853     Co1870   1.964       .  S
O1854      C1860   1.264       .  A
O1854     Co1869   1.997       .  S
O1855      C1858   1.262       .  A
O1855     Co1872   2.055       .  S
O1856      C1857   1.272       .  A
O1856     Co1871   2.042       .  S
C1857      C2456   1.489       .  S
C1858      C2441   1.505       .  S
C1859      C2384   1.482       .  S
C1860      C2429   1.463       .  S
O1861      C1874   1.290       .  A
O1861     Co1869   2.052       .  S
O1862      C1875   1.292       .  A
O1862     Co1870   2.065       .  S
O1863      C1876   1.254       .  A
O1863     Co1871   1.959       .  S
O1864      C1877   1.248       .  A
O1864     Co1872   1.931       .  S
O1865      C1877   1.283       .  A
O1865     Co1870   2.064       .  S
O1866      C1876   1.280       .  A
O1866     Co1869   2.066       .  S
O1867      C1874   1.263       .  A
O1867     Co1872   1.885       .  S
O1868      C1875   1.267       .  A
O1868     Co1871   1.887       .  S
Co1869     O1873   2.124       .  S
Co1870     O1873   2.098       .  S
Co1871     O1873   1.971       .  S
Co1872     O1873   1.964       .  S
C1874      C2372   1.454       .  S
C1875      C2408   1.464       .  S
C1876      C2420   1.516       .  S
C1877      C2393   1.483       .  S
O1878      C1886   1.260       .  A
O1878     Co1898   1.925   1_554  S
O1879      C1887   1.258       .  A
O1879     Co1899   1.994       .  S
O1880      C1888   1.248       .  A
O1880     Co1900   1.921       .  S
O1881      C1889   1.274       .  A
O1881     Co1901   1.888       .  S
O1882      C1888   1.271       .  A
O1882     Co1899   2.035       .  S
O1883      C1889   1.290       .  A
O1883     Co1898   2.041       .  S
O1884      C1887   1.247       .  A
O1884     Co1901   1.997       .  S
O1885      C1886   1.278       .  A
O1885     Co1900   2.023   1_554  S
C1886      C2381   1.480       .  S
C1887      C2309   1.494       .  S
C1888      C2297   1.457       .  S
C1889      C2324   1.442       .  S
O1890      C1903   1.256       .  A
O1890     Co1898   2.004       .  S
O1891      C1904   1.248       .  A
O1891     Co1899   1.951       .  S
O1892      C1905   1.252       .  A
O1892     Co1900   1.937       .  S
O1893      C1906   1.288       .  A
O1893     Co1901   2.019       .  S
O1894      C1906   1.269       .  A
O1894     Co1899   1.983       .  S
O1895      C1905   1.262       .  A
O1895     Co1898   1.979       .  S
O1896      C1903   1.265       .  A
O1896     Co1901   1.999       .  S
O1897      C1904   1.256       .  A
O1897     Co1900   1.973       .  S
Co1898     O1902   2.046       .  S
Co1899     O1902   2.063       .  S
Co1900     O1902   2.118       .  S
Co1901     O1902   1.923       .  S
C1903      C2357   1.483       .  S
C1904      C2345   1.465       .  S
C1905      C2333   1.462       .  S
C1906      C2369   1.446       .  S
O1907      C1915   1.296   1_556  A
O1907     Co1927   2.083       .  S
O1908      C1916   1.246       .  A
O1908     Co1928   1.965       .  S
O1909      C1917   1.269       .  A
O1909     Co1929   1.930       .  S
O1910      C1918   1.233       .  A
O1910     Co1930   1.918       .  S
O1911      C1917   1.307       .  A
O1911     Co1928   2.092       .  S
O1912      C1918   1.261       .  A
O1912     Co1927   2.053       .  S
O1913      C1916   1.242   1_556  A
O1913     Co1930   1.934       .  S
O1914      C1915   1.273       .  A
O1914     Co1929   1.875       .  S
C1916      C2321   1.450   1_554  S
C1917      C2276   1.502       .  S
C1918      C2225   1.488       .  S
O1919      C1932   1.261       .  A
O1919     Co1927   1.817       .  S
O1920      C1933   1.243       .  A
O1920     Co1928   1.912       .  S
O1921     Co1929   2.057       .  S
O1922      C1935   1.273   1_556  A
O1922     Co1930   1.993       .  S
O1923      C1935   1.274       .  A
O1923     Co1928   1.984       .  S
O1924     Co1927   1.963   1_554  S
O1925      C1932   1.301       .  A
O1925     Co1930   2.109       .  S
O1926      C1933   1.264       .  A
O1926     Co1929   2.034       .  S
Co1927     O1931   1.947   1_556  S
Co1928     O1931   1.995       .  S
Co1929     O1931   1.964       .  S
Co1930     O1931   2.062   1_556  S
C1933      C2237   1.459       .  S
C1934      C2252   1.484       .  S
O1936      C1944   1.280       .  A
O1936     Co1956   2.025       .  S
O1937      C1945   1.253       .  A
O1937     Co1957   1.975       .  S
O1938      C1946   1.258       .  A
O1938     Co1958   1.969       .  S
O1939      C1947   1.298       .  A
O1939     Co1959   1.992       .  S
O1940      C1946   1.280       .  A
O1940     Co1957   2.060       .  S
O1941      C1947   1.278       .  A
O1941     Co1956   1.925       .  S
O1942      C1945   1.270       .  A
O1942     Co1959   2.032       .  S
O1943      C1944   1.268       .  A
O1943     Co1958   1.911       .  S
C1945      C2417   1.515       .  S
C1946      C2201   1.494       .  S
C1947      C2240   1.479       .  S
O1948      C1961   1.273       .  A
O1948     Co1956   2.011       .  S
O1949      C1962   1.268       .  A
O1949     Co1957   1.976       .  S
O1950      C1963   1.255       .  A
O1950     Co1958   1.939       .  S
O1951      C1964   1.289       .  A
O1951     Co1959   2.023       .  S
O1952      C1964   1.288       .  A
O1952     Co1957   1.996       .  S
O1953      C1963   1.301       .  A
O1953     Co1956   2.119       .  S
O1954      C1961   1.257       .  A
O1954     Co1959   2.051       .  S
O1955      C1962   1.266       .  A
O1955     Co1958   1.992       .  S
Co1956     O1960   1.977       .  S
Co1957     O1960   2.027       .  S
Co1958     O1960   1.949       .  S
Co1959     O1960   2.052       .  S
C1962      C2228   1.470       .  S
C1963      C2177   1.487   1_655  S
O1965      C1973   1.273       .  A
O1965     Co1985   1.955       .  S
O1966      C1974   1.274       .  A
O1966     Co1986   2.001       .  S
O1967      C1975   1.275   1_554  A
O1967     Co1987   2.070       .  S
O1968      C1976   1.292       .  A
O1968     Co1988   2.096       .  S
O1969      C1975   1.255   1_554  A
O1969     Co1986   1.972       .  S
O1970      C1976   1.254       .  A
O1970     Co1985   1.928       .  S
O1971      C1974   1.263       .  A
O1971     Co1988   1.974       .  S
O1972      C1973   1.272       .  A
O1972     Co1987   2.034       .  S
C1973      C2300   1.478       .  S
C1974      C2288   1.479       .  S
C1975      C2132   1.507       .  S
C1976      C2168   1.505       .  S
O1977      C1990   1.274       .  A
O1977     Co1985   2.059       .  S
O1978      C1991   1.288       .  A
O1978     Co1986   2.108       .  S
O1979      C1992   1.260       .  A
O1979     Co1987   1.923       .  S
O1980      C1993   1.273       .  A
O1980     Co1988   2.012       .  S
O1981      C1993   1.261       .  A
O1981     Co1986   1.965       .  S
O1982      C1992   1.277       .  A
O1982     Co1985   2.065       .  S
O1983      C1990   1.254       .  A
O1983     Co1988   1.962       .  S
O1984      C1991   1.243       .  A
O1984     Co1987   1.932       .  S
Co1985     O1989   2.028       .  S
Co1986     O1989   2.049       .  S
Co1987     O1989   1.979       .  S
Co1988     O1989   2.026       .  S
C1990      C2141   1.503       .  S
C1991      C2273   1.508       .  S
C1992      C2405   1.461       .  S
C1993      C2153   1.478       .  S
O1994      C2002   1.276       .  A
O1994     Co2014   1.995       .  S
O1995      C2003   1.278       .  A
O1995     Co2015   2.027       .  S
O1996      C2004   1.277       .  A
O1996     Co2016   2.050       .  S
O1997      C2005   1.289       .  A
O1997     Co2017   2.095       .  S
O1998      C2004   1.257       .  A
O1998     Co2015   1.982       .  S
O1999      C2005   1.256       .  A
O1999     Co2014   1.952       .  S
O2000      C2003   1.262       .  A
O2000     Co2017   1.962       .  S
O2001      C2002   1.264       .  A
O2001     Co2016   2.005       .  S
C2002      C2396   1.494       .  S
C2003      C2213   1.511       .  S
C2004      C2144   1.500       .  S
C2005      C2117   1.501       .  S
O2006      C2019   1.272       .  A
O2006     Co2014   2.048       .  S
O2007      C2020   1.290       .  A
O2007     Co2015   2.119       .  S
O2008      C2021   1.278       .  A
O2008     Co2016   2.002       .  S
O2009      C2022   1.272       .  A
O2009     Co2017   1.999       .  S
O2010      C2022   1.266       .  A
O2010     Co2015   1.988       .  S
O2011      C2021   1.267       .  A
O2011     Co2014   2.012       .  S
O2012      C2019   1.257       .  A
O2012     Co2017   1.983       .  S
O2013      C2020   1.246       .  A
O2013     Co2016   1.948       .  S
Co2014     O2018   2.048       .  S
Co2015     O2018   2.080       .  S
Co2016     O2018   2.025       .  S
Co2017     O2018   2.048       .  S
C2019      C2129   1.498       .  S
C2020      C2204   1.507       .  S
C2021      C2312   1.498       .  S
C2022      C2108   1.486       .  S
O2023      C2031   1.260       .  A
O2024      C2032   1.254       .  A
O2024     Co2044   1.981       .  S
O2025      C2033   1.261       .  A
O2025     Co2045   1.880       .  S
O2026      C2034   1.271       .  A
O2026     Co2046   1.998       .  S
O2027      C2033   1.302       .  A
O2027     Co2044   2.109       .  S
O2028      C2034   1.273       .  A
O2028     Co2043   1.990       .  S
O2029      C2032   1.265       .  A
O2029     Co2046   2.025       .  S
O2030     Co2045   2.090       .  S
C2031      C2453   1.480   1_545  S
C2032      C2444   1.490       .  S
C2033      C2165   1.484       .  S
C2034      C2084   1.497       .  S
O2035      C2048   1.259       .  A
O2035     Co2043   1.988       .  S
O2036      C2049   1.270       .  A
O2036     Co2044   2.017       .  S
O2037      C2050   1.276       .  A
O2038      C2051   1.253       .  A
O2038     Co2046   1.927       .  S
O2039      C2051   1.290       .  A
O2039     Co2044   2.094       .  S
O2040      C2050   1.261       .  A
O2041      C2048   1.256       .  A
O2041     Co2046   1.981       .  S
O2042      C2049   1.288       .  A
O2042     Co2045   2.053       .  S
Co2043     O2047   1.988       .  S
Co2044     O2047   2.118       .  S
Co2045     O2047   2.005       .  S
Co2046     O2047   2.063       .  S
C2049      C2093   1.520       .  S
C2050      C2249   1.489   1_545  S
O2052      C2060   1.269       .  A
O2053      C2061   1.298       .  A
O2053     Co2073   2.058       .  S
O2054      C2062   1.271       .  A
O2054     Co2074   1.871       .  S
O2055      C2063   1.255       .  A
O2055     Co2075   1.992       .  S
O2056      C2062   1.318       .  A
O2056     Co2073   2.144       .  S
O2057      C2063   1.267       .  A
O2057     Co2072   2.049       .  S
O2058      C2061   1.268       .  A
O2058     Co2075   1.870       .  S
O2059      C2060   1.305   1_545  A
C2060      C2360   1.470       .  S
C2061      C2348   1.450       .  S
C2062      C2120   1.513       .  S
C2063      C2096   1.514       .  S
O2064     Co2072   1.945       .  S
O2065      C2078   1.255       .  A
O2065     Co2073   1.955       .  S
O2066      C2079   1.290       .  A
O2067      C2080   1.252       .  A
O2067     Co2075   1.938       .  S
O2068      C2080   1.273       .  A
O2068     Co2073   2.044       .  S
O2069      C2079   1.252       .  A
O2070     Co2075   1.987       .  S
O2071      C2078   1.284       .  A
O2071     Co2074   2.053       .  S
Co2072     O2076   1.928       .  S
Co2073     O2076   2.152       .  S
Co2074     O2076   1.958       .  S
Co2075     O2076   1.926       .  S
C2077      C2261   1.435   1_455  S
C2078      C2081   1.498       .  S
C2079      C2180   1.481   1_545  S
C2081      C2082   1.406       .  A
C2081      C2086   1.414       .  A
C2082      C2083   1.393       .  A
C2082      H2087   1.085       .  S
C2083      C2084   1.416       .  A
C2083      C2090   1.447       .  S
C2084      C2085   1.412       .  A
C2085      C2086   1.417       .  A
C2085      H2088   1.084       .  S
C2086      C2089   1.442       .  S
C2089      N2091   1.157       .  T
C2090      N2092   1.157       .  T
C2093      C2094   1.415       .  A
C2093      C2098   1.417       .  A
C2094      C2095   1.422   1_554  A
C2094      H2099   1.084       .  S
C2095      C2096   1.415       .  A
C2095      C2102   1.441       .  S
C2096      C2097   1.408       .  A
C2097      C2098   1.412   1_556  A
C2097      H2100   1.083       .  S
C2098      C2101   1.444       .  S
C2102      N2104   1.157       .  T
C2105      C2106   1.411       .  A
C2105      C2110   1.422       .  A
C2106      C2107   1.417       .  A
C2106      H2111   1.084       .  S
C2107      C2108   1.414       .  A
C2107      C2114   1.442       .  S
C2108      C2109   1.397       .  A
C2109      C2110   1.396       .  A
C2109      H2112   1.086       .  S
C2110      C2113   1.446       .  S
C2113      N2115   1.157       .  T
C2114      N2116   1.157       .  T
C2117      C2118   1.402       .  A
C2117      C2122   1.423       .  A
C2118      C2119   1.415       .  A
C2118      H2123   1.085       .  S
C2119      C2120   1.428       .  A
C2119      C2126   1.443       .  S
C2120      C2121   1.401       .  A
C2121      C2122   1.405       .  A
C2121      H2124   1.085       .  S
C2122      C2125   1.442       .  S
C2125      N2127   1.158       .  T
C2126      N2128   1.157       .  T
C2129      C2130   1.408       .  A
C2129      C2134   1.410       .  A
C2130      C2131   1.412       .  A
C2130      H2135   1.084       .  S
C2131      C2132   1.414       .  A
C2131      C2138   1.438       .  S
C2132      C2133   1.412       .  A
C2133      C2134   1.408       .  A
C2133      H2136   1.085       .  S
C2134      C2137   1.443       .  S
C2137      N2139   1.157       .  T
C2138      N2140   1.156       .  T
C2141      C2142   1.406       .  A
C2141      C2146   1.421       .  A
C2142      C2143   1.415       .  A
C2142      H2147   1.084       .  S
C2143      C2144   1.420       .  A
C2143      C2150   1.443       .  S
C2144      C2145   1.400       .  A
C2145      C2146   1.404       .  A
C2145      H2148   1.084       .  S
C2146      C2149   1.444       .  S
C2149      N2151   1.157       .  T
C2150      N2152   1.157       .  T
C2153      C2154   1.400       .  A
C2153      C2158   1.411       .  A
C2154      C2155   1.393       .  A
C2154      H2159   1.085       .  S
C2155      C2156   1.414       .  A
C2155      C2162   1.446       .  S
C2156      C2157   1.409       .  A
C2157      C2158   1.413       .  A
C2157      H2160   1.084       .  S
C2158      C2161   1.442       .  S
C2161      N2163   1.157       .  T
C2162      N2164   1.157       .  T
C2165      C2166   1.411       .  A
C2165      C2170   1.402       .  A
C2166      C2167   1.414       .  A
C2166      H2171   1.084       .  S
C2167      C2168   1.414       .  A
C2167      C2174   1.442       .  S
C2168      C2169   1.418       .  A
C2169      C2170   1.396       .  A
C2169      H2172   1.084       .  S
C2170      C2173   1.446       .  S
C2173      N2175   1.157       .  T
C2174      N2176   1.157       .  T
C2178      C2179   1.404       .  A
C2179      C2180   1.411       .  A
C2180      C2181   1.404       .  A
C2181      C2182   1.409       .  A
C2181      H2184   1.085       .  S
C2185      N2187   1.157       .  T
C2186      N2188   1.157       .  T
C2189      C2190   1.390       .  A
C2190      C2191   1.385       .  A
C2190      H2195   1.051       .  S
C2191      C2192   1.406       .  A
C2192      C2193   1.413       .  A
C2193      H2196   1.084       .  S
C2194      C2197   1.439       .  S
C2197      N2199   1.157       .  T
C2198      N2200   1.157       .  T
C2201      C2202   1.395       .  A
C2201      C2206   1.414       .  A
C2202      C2203   1.409       .  A
C2202      H2207   1.086       .  S
C2203      C2204   1.428       .  A
C2203      C2210   1.437       .  S
C2204      C2205   1.410       .  A
C2205      C2206   1.413       .  A
C2205      H2208   1.085       .  S
C2206      C2209   1.442       .  S
C2209      N2211   1.157       .  T
C2210      N2212   1.157       .  T
C2213      C2214   1.409       .  A
C2213      C2218   1.426       .  A
C2214      C2215   1.415       .  A
C2214      H2219   1.084       .  S
C2215      C2216   1.423       .  A
C2216      C2217   1.403       .  A
C2217      C2218   1.399       .  A
C2217      H2220   1.085       .  S
C2218      C2221   1.447       .  S
C2221      N2223   1.158       .  T
C2222      N2224   1.157   1_545  T
C2225      C2226   1.405       .  A
C2225      C2230   1.421       .  A
C2226      C2227   1.408       .  A
C2226      H2231   1.081       .  S
C2227      C2228   1.409       .  A
C2227      C2234   1.443       .  S
C2228      C2229   1.396       .  A
C2229      C2230   1.391       .  A
C2229      H2232   1.086       .  S
C2230      C2233   1.447       .  S
C2233      N2235   1.158       .  T
C2234      N2236   1.157       .  T
C2237      C2238   1.410       .  A
C2237      C2242   1.396       .  A
C2238      C2239   1.396       .  A
C2238      H2243   1.086       .  S
C2239      C2240   1.407       .  A
C2239      C2246   1.444       .  S
C2240      C2241   1.418       .  A
C2241      C2242   1.393       .  A
C2241      H2244   1.084       .  S
C2242      C2245   1.444       .  S
C2245      N2247   1.157       .  T
C2246      N2248   1.157       .  T
C2249      C2250   1.406   1_565  A
C2249      C2254   1.417       .  A
C2250      C2251   1.401   1_545  A
C2250      H2255   1.081       .  S
C2251      C2252   1.413       .  A
C2251      C2258   1.443   1_565  S
C2253      H2256   1.083       .  S
C2254      C2257   1.445       .  S
C2257      N2259   1.158       .  T
C2258      N2260   1.157   1_554  T
C2261      C2266   1.399       .  A
C2262      C2263   1.370       .  A
C2262      H2267   1.086       .  S
C2263      C2270   1.445       .  S
C2264      C2265   1.409       .  A
C2265      C2266   1.386       .  A
C2265      H2268   1.085       .  S
C2266      C2269   1.444       .  S
C2269      N2271   1.157       .  T
C2270      N2272   1.156       .  T
C2273      C2274   1.417       .  A
C2273      C2278   1.408       .  A
C2274      C2275   1.397       .  A
C2274      H2279   1.080       .  S
C2275      C2276   1.405       .  A
C2275      C2282   1.445       .  S
C2276      C2277   1.421       .  A
C2277      C2278   1.415       .  A
C2277      H2280   1.084   1_554  S
C2278      C2281   1.442   1_554  S
C2281      N2283   1.157       .  T
C2282      N2284   1.158       .  T
C2285      C2286   1.417       .  A
C2285      C2290   1.413       .  A
C2286      C2287   1.392       .  A
C2286      H2291   1.085       .  S
C2287      C2288   1.403       .  A
C2287      C2294   1.447       .  S
C2288      C2289   1.412       .  A
C2289      C2290   1.414       .  A
C2289      H2292   1.085       .  S
C2293      N2295   1.157       .  T
C2294      N2296   1.157       .  T
C2297      C2298   1.383       .  A
C2297      C2302   1.412   1_556  A
C2298      C2299   1.383   1_556  A
C2298      H2303   1.087       .  S
C2299      C2300   1.423       .  A
C2299      C2306   1.442       .  S
C2300      C2301   1.405       .  A
C2301      C2302   1.410       .  A
C2301      H2304   1.084       .  S
C2302      C2305   1.443       .  S
C2305      N2307   1.157       .  T
C2306      N2308   1.157       .  T
C2309      C2310   1.420       .  A
C2309      C2314   1.406       .  A
C2310      C2311   1.418       .  A
C2310      H2315   1.079       .  S
C2311      C2312   1.405       .  A
C2311      C2318   1.441       .  S
C2312      C2313   1.409       .  A
C2313      C2314   1.385       .  A
C2313      H2316   1.076       .  S
C2314      C2317   1.443       .  S
C2317      N2319   1.156       .  T
C2318      N2320   1.157       .  T
C2321      C2322   1.399   1_556  A
C2321      C2326   1.412       .  A
C2322      C2323   1.393   1_554  A
C2322      H2327   1.085       .  S
C2323      C2324   1.405       .  A
C2323      C2330   1.443       .  S
C2324      C2325   1.394       .  A
C2325      C2326   1.389       .  A
C2325      H2328   1.086       .  S
C2326      C2329   1.446       .  S
C2329      N2331   1.157       .  T
C2330      N2332   1.157       .  T
C2333      C2334   1.402       .  A
C2333      C2338   1.412       .  A
C2334      C2335   1.386       .  A
C2334      H2339   1.084       .  S
C2335      C2336   1.412       .  A
C2335      C2342   1.446       .  S
C2336      C2337   1.403       .  A
C2337      C2338   1.391       .  A
C2338      C2341   1.445       .  S
C2341      N2343   1.158       .  T
C2342      N2344   1.157       .  T
C2345      C2346   1.406       .  A
C2345      C2350   1.413       .  A
C2346      C2347   1.390       .  A
C2346      H2351   1.085       .  S
C2347      C2348   1.405       .  A
C2347      C2354   1.442       .  S
C2348      C2349   1.398       .  A
C2349      C2350   1.387       .  A
C2349      H2352   1.086       .  S
C2350      C2353   1.445       .  S
C2353      N2355   1.157       .  T
C2354      N2356   1.156       .  T
C2357      C2358   1.411       .  A
C2357      C2362   1.416       .  A
C2358      C2359   1.405       .  A
C2358      H2363   1.084       .  S
C2359      C2360   1.407       .  A
C2359      C2366   1.443       .  S
C2360      C2361   1.400       .  A
C2361      C2362   1.392       .  A
C2361      H2364   1.086       .  S
C2362      C2365   1.446       .  S
C2365      N2367   1.157       .  T
C2366      N2368   1.157       .  T
C2369      C2370   1.394       .  A
C2369      C2374   1.406       .  A
C2370      C2371   1.387       .  A
C2370      H2375   1.081       .  S
C2371      C2372   1.407       .  A
C2371      C2378   1.443       .  S
C2372      C2373   1.402       .  A
C2373      C2374   1.396       .  A
C2373      H2376   1.085       .  S
C2374      C2377   1.444       .  S
C2377      N2379   1.157       .  T
C2378      N2380   1.156       .  T
C2381      C2382   1.407       .  A
C2381      C2386   1.407       .  A
C2382      C2383   1.391       .  A
C2382      H2387   1.085       .  S
C2383      C2384   1.413       .  A
C2383      C2390   1.445       .  S
C2384      C2385   1.410       .  A
C2385      C2386   1.399       .  A
C2385      H2388   1.084       .  S
C2386      C2389   1.441       .  S
C2389      N2391   1.157       .  T
C2390      N2392   1.157       .  T
C2393      C2394   1.418       .  A
C2393      C2398   1.397       .  A
C2394      C2395   1.408       .  A
C2394      H2399   1.083       .  S
C2395      C2396   1.406       .  A
C2395      C2402   1.443       .  S
C2396      C2397   1.417       .  A
C2397      C2398   1.394       .  A
C2397      H2400   1.075       .  S
C2398      C2401   1.445       .  S
C2401      N2403   1.157       .  T
C2402      N2404   1.158       .  T
C2405      C2406   1.394       .  A
C2405      C2410   1.413       .  A
C2406      C2407   1.386       .  A
C2406      H2411   1.084       .  S
C2407      C2408   1.411       .  A
C2407      C2414   1.444       .  S
C2408      C2409   1.401       .  A
C2409      C2410   1.405       .  A
C2409      H2412   1.085       .  S
C2410      C2413   1.440       .  S
C2413      N2415   1.157       .  T
C2414      N2416   1.156       .  T
C2417      C2418   1.416       .  A
C2417      C2422   1.413       .  A
C2418      C2419   1.408       .  A
C2418      H2423   1.084       .  S
C2419      C2420   1.413       .  A
C2419      C2426   1.444       .  S
C2420      C2421   1.419       .  A
C2421      C2422   1.418       .  A
C2421      H2424   1.084       .  S
C2422      C2425   1.443       .  S
C2425      N2427   1.157       .  T
C2426      N2428   1.157       .  T
C2429      C2430   1.412       .  A
C2429      C2434   1.404       .  A
C2430      C2431   1.399       .  A
C2430      H2435   1.085       .  S
C2431      C2432   1.400       .  A
C2431      C2438   1.443       .  S
C2432      C2433   1.408       .  A
C2433      C2434   1.387       .  A
C2433      H2436   1.086       .  S
C2434      C2437   1.445       .  S
C2437      N2439   1.157       .  T
C2438      N2440   1.157       .  T
C2441      C2442   1.412       .  A
C2441      C2446   1.416       .  A
C2442      C2443   1.401       .  A
C2442      H2447   1.083       .  S
C2443      C2444   1.407       .  A
C2443      C2450   1.445       .  S
C2444      C2445   1.409       .  A
C2445      C2446   1.416       .  A
C2445      H2448   1.083       .  S
C2446      C2449   1.442       .  S
C2449      N2451   1.157       .  T
C2450      N2452   1.157       .  T
C2453      C2454   1.396       .  A
C2453      C2458   1.414       .  A
C2454      C2455   1.398       .  A
C2454      H2459   1.086       .  S
C2455      C2456   1.420       .  A
C2455      C2462   1.445       .  S
C2456      C2457   1.406       .  A
C2457      C2458   1.413       .  A
C2457      H2460   1.084       .  S
C2461      N2463   1.157       .  T
C2462      N2464   1.157       .  T
