geometry optimzed in LAMMPS
_audit_creation_date              2020-11-30 
_audit_creation_method            'lammps2cif' 
_symmetry_space_group_name_H-M    'P1' 
_symmetry_Int_Tables_number       1 
_symmetry_cell_setting            triclinic 
loop_ 
_symmetry_equiv_pos_as_xyz 
  x,y,z 
_cell_length_a                    40.57538471 
_cell_length_b                    40.4078901089837 
_cell_length_c                    35.84241693761258 
_cell_angle_alpha                 90.31797484530597 
_cell_angle_beta                  90.03785122421182 
_cell_angle_gamma                 120.72582567266927 
loop_ 
_atom_site_label 
_atom_site_type_symbol 
_atom_site_fract_x 
_atom_site_fract_y 
_atom_site_fract_z 
_atom_site_charge 
O1          O  0.13800875  0.16700238  0.35596579    -0.87500
C2          C  0.11232671  0.25174643  0.36264697     0.88500
Mg3        Mg  0.14045179  0.13995605  0.30457249     1.58100
O4          O  0.04353564  0.15865376  0.39277816    -0.87300
O5          O  0.11660637  0.15304158  0.41280273    -0.74600
C6          C  0.97731929  0.09550181  0.21574592     0.93500
O7          O  0.15373920  0.22961866  0.29509052    -0.74400
O8          O  0.01071390  0.10331012  0.20522563    -0.81900
Mg9        Mg  0.16977200  0.22905265  0.35689654     1.58000
C10         C  0.43278523  0.11887699  0.35083803     0.93500
O11         O  0.19260787  0.23498559  0.41621063    -0.80200
H12         H  0.02716182  0.11239576  0.42472070    -0.05500
C13         C  0.02990225  0.18228757  0.28322766     0.88400
O14         O  0.08139732  0.08695846  0.31467660    -0.74700
O15         O  0.11983054  0.22849304  0.37669571    -0.87500
O16         O  0.45846244  0.13931746  0.37462167    -0.80300
C17         C  0.03540697  0.22911509  0.44492098     0.93600
C18         C  0.18558384  0.23687151  0.45042066     0.93400
Mg19       Mg  0.99122753  0.10069527  0.30940802     1.58000
O20         O  0.46969957  0.09649706  0.24993755    -0.80200
O21         O  0.00722488  0.09939710  0.37143566    -0.74400
O22         O  0.06715214  0.22991284  0.45043093    -0.80300
O23         O  0.22219231  0.22812515  0.34086403    -0.82000
O24         O  0.09170309  0.09868242  0.21716534    -0.80300
C25         C  0.02601466  0.12332652  0.39757635     0.87900
O26         O  0.04077083  0.10101000  0.29010690    -0.87500
O27         O  0.02354529  0.16252429  0.31136096    -0.87600
O28         O  0.04629047  0.17802276  0.25508761    -0.74600
Mg29       Mg  0.09446557  0.19392789  0.42659737     1.58000
O30         O  0.01505507  0.21414282  0.41599251    -0.82000
H31         H  0.14120873  0.12696545  0.38560404    -0.05700
O32         O  0.11779096  0.17008233  0.27453254    -0.87300
H33         H  0.13448391  0.21576836  0.24172263    -0.05500
H34         H  0.02420798  0.04911134  0.31110959    -0.05700
C35         C  0.13544371  0.20529079  0.26916460     0.87800
C36         C  0.13262975  0.14824149  0.38465115     0.88400
C37         C  0.04770069  0.07763998  0.30482826     0.88500
H38         H  0.02197056  0.20406466  0.28282186    -0.05700
O39         O  0.07833141  0.24209780  0.35351717    -0.74700
Mg40       Mg  0.06703216  0.13618868  0.24076626     1.58000
H41         H  0.13546629  0.28053459  0.35659451    -0.05700
C42         C  0.22827023  0.20976452  0.31588954     0.93500
O43         O  0.14319816  0.11175240  0.25138545    -0.81900
C44         C  0.12234097  0.09749787  0.22250969     0.93500
O45         O  0.15208106  0.22882860  0.46125429    -0.81900
Mg46       Mg  0.01972664  0.18789676  0.36304660     1.58200
O47         O  0.20244714  0.18697366  0.29322605    -0.80300
O48         O  0.43870657  0.10164025  0.32466127    -0.82000
C49         C  0.13846526  0.08556072  0.19187510     0.03100
C50         C  0.13803839  0.05030288  0.19139759     0.03000
C51         C  0.16119839  0.04526413  0.16546861    -0.17500
C52         C  0.18503739  0.07451847  0.14040735     0.03100
C53         C  0.18503925  0.10962972  0.14066376     0.03000
C54         C  0.16167348  0.11445601  0.16628632    -0.17500
H55         H  0.16231019  0.14162720  0.16696696     0.05100
H56         H  0.16123831  0.01844526  0.16526214     0.05100
C57         C  0.44650506  0.08759208  0.18842239     0.03100
C58         C  0.40917868  0.05466605  0.19134889     0.03000
C59         C  0.37915596  0.05343022  0.17052213    -0.17500
C60         C  0.38449568  0.08283502  0.14610619     0.03100
C61         C  0.42172341  0.11556117  0.14262190     0.03000
C62         C  0.45208227  0.11754358  0.16405625    -0.17500
H63         H  0.48039918  0.14299378  0.16202982     0.05100
H64         H  0.35077914  0.02793964  0.17232110     0.05100
O65         O  0.14515736  0.46090200  0.34404481    -0.87500
C66         C  0.06263783  0.41151112  0.42162821     0.88500
Mg67       Mg  0.14312277  0.49408887  0.29784354     1.58100
O68         O  0.07704868  0.35397946  0.35759837    -0.87300
O69         O  0.16247181  0.42008084  0.36040097    -0.74600
C70         C  0.47499057  0.37750813  0.21833639     0.93500
O71         O  0.08796197  0.48727831  0.36959093    -0.74400
O72         O  0.99848971  0.41389366  0.21822453    -0.81900
Mg73       Mg  0.13480652  0.47813460  0.39678593     1.58000
C74         C  0.47813572  0.26897677  0.30954905     0.93500
O75         O  0.18148150  0.47305906  0.42761529    -0.80200
H76         H  0.11008465  0.33675407  0.33302044    -0.05500
C77         C  0.99376978  0.37926713  0.32550467     0.88400
O78         O  0.12990121  0.44486428  0.25714893    -0.74700
O79         O  0.09380944  0.41919348  0.40817040    -0.87500
O80         O  0.50449098  0.28221500  0.33359569    -0.80300
C81         C  0.03906797  0.30537551  0.44456139     0.93600
C82         C  0.18602243  0.45029275  0.44853341     0.93400
Mg83       Mg  0.02660476  0.35025705  0.27016450     1.58000
O84         O  0.47964435  0.35501645  0.23955335    -0.80200
O85         O  0.07367508  0.34136330  0.29732884    -0.74400
O86         O  0.07286468  0.33522947  0.44695602    -0.80300
O87         O  0.18178384  0.03968278  0.38515658    -0.82000
O88         O  0.08755586  0.49285178  0.22040837    -0.80300
C89         C  0.08779088  0.34368201  0.32976522     0.87900
O90         O  0.06735877  0.40908647  0.25875974    -0.87500
O91         O  0.01641426  0.36752030  0.32297000    -0.87600
O92         O  0.99860497  0.40795565  0.30674849    -0.74600
Mg93       Mg  0.11652352  0.38079924  0.40299117     1.58000
O94         O  0.01765889  0.29903285  0.41653550    -0.82000
H95         H  0.19190704  0.46301167  0.32313140    -0.05700
O96         O  0.08432086  0.47440258  0.30937374    -0.87300
H97         H  0.05163878  0.49206393  0.33394146    -0.05500
H98         H  0.09909894  0.39783012  0.22413545    -0.05700
C99         C  0.07379679  0.48494637  0.33718490     0.87800
C100        C  0.16759049  0.44887440  0.34161700     0.88400
C101        C  0.09849803  0.41663135  0.24534928     0.88500
H102        H  0.96952789  0.36497813  0.34405820    -0.05700
O103        O  0.03127990  0.38309406  0.40993589    -0.74700
Mg104      Mg  0.04439738  0.44726376  0.26411855     1.58000
H105        H  0.06196367  0.43024975  0.44287158    -0.05700
C106        C  0.18384915  0.05989095  0.35742743     0.93500
O107        O  0.14355990  0.02868988  0.24972624    -0.81900
C108        C  0.12150936  0.52245685  0.22224437     0.93500
O109        O  0.16233898  0.41396108  0.44861306    -0.81900
Mg110      Mg  0.01837734  0.33410614  0.36889712     1.58200
O111        O  0.15816635  0.04679605  0.33263626    -0.80300
O112        O  0.47974774  0.28885102  0.28174699    -0.82000
O113        O  0.31490674  0.35101525  0.34326563    -0.87500
C114        C  0.34852497  0.43455911  0.42061877     0.88500
Mg115      Mg  0.34896842  0.35330073  0.29602305     1.58100
O116        O  0.27382910  0.41684881  0.35842301    -0.87300
O117        O  0.25629579  0.33179978  0.36014703    -0.74600
C118        C  0.39747531  0.02191887  0.21762644     0.93500
O119        O  0.39947582  0.41141831  0.36617804    -0.74400
O120        O  0.41136357  0.49960527  0.21620314    -0.81900
Mg121      Mg  0.34448517  0.36364558  0.39525654     1.58000
C122        C  0.28683501  0.01641952  0.31182085     0.93500
O123        O  0.29475058  0.31712963  0.42842871    -0.80200
H124        H  0.22228372  0.38280791  0.33522409    -0.05500
C125        C  0.38233041  0.50228995  0.32407628     0.88400
O126        O  0.31119236  0.36455249  0.25660609    -0.74700
O127        O  0.32495749  0.40274919  0.40739684    -0.87500
O128        O  0.27446524  0.99090997  0.33666714    -0.80300
C129        C  0.26263499  0.45279804  0.44586298     0.93600
C130        C  0.26596696  0.30970157  0.44853776     0.93400
Mg131      Mg  0.31824109  0.46716587  0.27032078     1.58000
O132        O  0.36899937  0.01438086  0.23832150    -0.80200
O133        O  0.26261385  0.41944242  0.29868016    -0.74400
O134        O  0.25901321  0.41934009  0.44750239    -0.80300
O135        O  0.35931858  0.31737320  0.38296965    -0.82000
O136        O  0.40224011  0.40800765  0.21684939    -0.80300
C137        C  0.25169011  0.40551198  0.33126223     0.87900
O138        O  0.33703543  0.42722386  0.25750533    -0.87500
O139        O  0.34751584  0.47915525  0.32239668    -0.87600
O140        O  0.40576535  0.49778704  0.30434446    -0.74600
Mg141      Mg  0.26259057  0.37713348  0.40319885     1.58000
O142        O  0.27866982  0.47521410  0.41867491    -0.82000
H143        H  0.27007119  0.30312639  0.32243210    -0.05700
O144        O  0.38831259  0.41301076  0.30621238    -0.87300
H145        H  0.43957539  0.44804575  0.32948786    -0.05500
H146        H  0.29252039  0.39298524  0.22449540    -0.05700
C147        C  0.41032026  0.42501637  0.33347683     0.87800
C148        C  0.28023278  0.32752441  0.34115406     0.88400
C149        C  0.31314918  0.39515120  0.24493982     0.88500
H150        H  0.39305032  0.02668894  0.34284493    -0.05700
O151        O  0.35062644  0.46526709  0.40923262    -0.74700
Mg152      Mg  0.39933191  0.45223084  0.26102238     1.58000
H153        H  0.36882562  0.43641198  0.44129154    -0.05700
C154        C  0.37596233  0.31447517  0.35436613     0.93500
O155        O  0.38203812  0.35288862  0.24738237    -0.81900
C156        C  0.39791789  0.37414614  0.21952108     0.93500
O157        O  0.25093348  0.33091849  0.44820523    -0.81900
Mg158      Mg  0.31295752  0.47645158  0.36979889     1.58200
O159        O  0.38803991  0.33974923  0.32931727    -0.80300
O160        O  0.30377297  0.01375406  0.28330442    -0.82000
C161        C  0.40893598  0.35612225  0.18953675     0.03100
C162        C  0.44484550  0.35806150  0.18941251     0.03000
C163        C  0.45049707  0.33420565  0.16474368    -0.17500
C164        C  0.42152584  0.30753737  0.14095630     0.03100
C165        C  0.38494919  0.30347162  0.14243020     0.03000
C166        C  0.37925463  0.32795616  0.16664313    -0.17500
H167        H  0.35138864  0.32556631  0.16715258     0.05100
H168        H  0.47837782  0.33658413  0.16394718     0.05100
O169        O  0.19021603  0.48415435  0.98612239    -0.87500
C170        C  0.27641387  0.02257047  0.91094005     0.88500
Mg171      Mg  0.18776629  0.51662024  0.03333786     1.58100
O172        O  0.25857036  0.44802043  0.97269240    -0.87300
O173        O  0.17313332  0.42642966  0.96651111    -0.74600
C174        C  0.35274449  0.07165394  0.11897023     0.93500
O175        O  0.24836363  0.07079315  0.96591469    -0.74400
O176        O  0.32948640  0.08428310  0.12036040    -0.81900
Mg177      Mg  0.20407420  0.51510165  0.93444180     1.58000
C178        C  0.35715666  0.47062189  0.02574055     0.93500
O179        O  0.16028123  0.46532333  0.90063707    -0.80200
H180        H  0.22462999  0.39593781  0.99471015    -0.05500
C181        C  0.33811874  0.05831804  0.01210828     0.88400
O182        O  0.19832639  0.47995357  0.07456059    -0.74700
O183        O  0.24505791  0.49820492  0.92379514    -0.87500
O184        O  0.33051614  0.45392663  0.00224911    -0.80300
C185        C  0.30221979  0.44108279  0.88861659     0.93600
C186        C  0.15209779  0.43649402  0.88017630     0.93400
Mg187      Mg  0.30240661  0.99300038  0.06423458     1.58000
O188        O  0.34661904  0.04390592  0.09767715    -0.80200
O189        O  0.25803710  0.43683533  0.03300124    -0.74400
O190        O  0.26805688  0.43537119  0.88436068    -0.80300
O191        O  0.15505700  0.02515674  0.94280337    -0.82000
O192        O  0.23775030  0.07015191  0.11443855    -0.80300
C193        C  0.24631804  0.42574224  0.99962307     0.87900
O194        O  0.26079035  0.00884388  0.07489305    -0.87500
O195        O  0.31538720  0.02326950  0.01226907    -0.87600
O196        O  0.33236479  0.08090518  0.03206434    -0.74600
Mg197      Mg  0.22097248  0.43567723  0.92570307     1.58000
O198        O  0.32230642  0.45752731  0.91735876    -0.82000
H199        H  0.14205906  0.43760984  0.00348058    -0.05700
O200        O  0.24703069  0.05878120  0.02603396    -0.87300
H201        H  0.28128861  0.11114286  0.00477881    -0.05500
H202        H  0.22829334  0.46455908  0.10847285    -0.05700
C203        C  0.25959994  0.08143385  0.99943950     0.87800
C204        C  0.16734690  0.44913385  0.98622349     0.88400
C205        C  0.22938122  0.48407096  0.08733216     0.88500
H206        H  0.36335827  0.06996701  0.99470181    -0.05700
O207        O  0.30745405  0.02658080  0.92360167    -0.74700
Mg208      Mg  0.28428982  0.07104703  0.07292167     1.58000
H209        H  0.27748571  0.04181744  0.88950813    -0.05700
C210        C  0.14888843  0.03696502  0.97303090     0.93500
O211        O  0.18355867  0.04898506  0.08169063    -0.81900
C212        C  0.20376949  0.06467107  0.11054033     0.93500
O213        O  0.17417472  0.42233078  0.87874298    -0.81900
Mg214      Mg  0.31789789  0.99028897  0.96536563     1.58200
O215        O  0.17510600  0.05324720  0.99700780    -0.80300
O216        O  0.35169371  0.48346389  0.05566189    -0.82000
O217        O  0.19642689  0.20167926  0.02053092    -0.87500
C218        C  0.29747351  0.20676385  0.02621670     0.88500
Mg219      Mg  0.17012346  0.20417093  0.96869432     1.58100
O220        O  0.28207316  0.28063879  0.05825520    -0.87300
O221        O  0.19984679  0.21358285  0.07957982    -0.74600
C222        C  0.29745942  0.36369324  0.88658508     0.93500
O223        O  0.23526078  0.17878139  0.95876575    -0.74400
O224        O  0.26864839  0.33162900  0.87585744    -0.81900
Mg225      Mg  0.21374010  0.15944844  0.01977332     1.56200
C226        C  0.36909188  0.38543776  0.02608478     0.93500
O227        O  0.19454650  0.13504566  0.07956623    -0.80200
H228        H  0.25746394  0.30128721  0.09207514    -0.05500
C229        C  0.32419718  0.30083852  0.94941423     0.88400
O230        O  0.18062355  0.26424117  0.98211520    -0.74700
O231        O  0.26826984  0.20202937  0.04201576    -0.87500
O232        O  0.35004297  0.35855720  0.04831279    -0.80300
C233        C  0.35642077  0.28377394  0.11239524     0.93600
C234        C  0.20668570  0.14079143  0.11327110     0.93400
Mg235      Mg  0.29160867  0.34516886  0.97981655     1.58000
O236        O  0.31003573  0.36949794  0.92011571    -0.80200
O237        O  0.27085180  0.32624658  0.04091239    -0.74400
O238        O  0.32334786  0.25426895  0.11875289    -0.80300
O239        O  0.15240236  0.11542010  0.00164010    -0.82000
O240        O  0.18155157  0.25137881  0.88132560    -0.80300
C241        C  0.26968244  0.30245598  0.06496638     0.87900
O242        O  0.23712126  0.30215354  0.95785280    -0.87500
O243        O  0.30928455  0.30321247  0.97833112    -0.87600
O244        O  0.30535676  0.29111034  0.91926801    -0.74600
Mg245      Mg  0.26188820  0.23017098  0.09200552     1.58000
O246        O  0.36460534  0.30136625  0.08179075    -0.82000
H247        H  0.15193691  0.19756326  0.04868888    -0.05700
O248        O  0.22340903  0.22383471  0.94065852    -0.87300
H249        H  0.24926639  0.20386590  0.90766231    -0.05500
H250        H  0.20580429  0.32241227  0.98051539    -0.05700
C251        C  0.23646871  0.20245556  0.93449217     0.87800
C252        C  0.18130078  0.20404517  0.04927910     0.88400
C253        C  0.20772444  0.29747334  0.97313603     0.88500
H254        H  0.35358093  0.30739658  0.94973547    -0.05700
O255        O  0.32422436  0.23992019  0.01655798    -0.74700
Mg256      Mg  0.24313689  0.27448631  0.90740790     1.58000
H257        H  0.29939764  0.18184320  0.01878864    -0.05700
C258        C  0.13683468  0.11993346  0.97304468     0.93500
O259        O  0.14035310  0.20260523  0.91665610    -0.81900
C260        C  0.14849503  0.22155926  0.88682533     0.93500
O261        O  0.23551909  0.17286645  0.12412762    -0.81900
Mg262      Mg  0.33532656  0.30015574  0.02997768     1.58200
O263        O  0.15670238  0.14631093  0.95068400    -0.80300
O264        O  0.35289236  0.38960458  0.99778670    -0.82000
O265        O  0.50472923  0.31014403  0.97883749    -0.87500
C266        C  0.09154820  0.28983145  0.97355362     0.88500
Mg267      Mg  0.47758920  0.31059995  0.03049697     1.58100
O268        O  0.49938398  0.22108766  0.94102726    -0.87300
O269        O  0.49205091  0.29242179  0.92090228    -0.74600
C270        C  0.43101787  0.14586052  0.11440762     0.93500
O271        O  0.06586217  0.32640797  0.04043440    -0.74400
O272        O  0.43705325  0.17892615  0.12459632    -0.81900
Mg273      Mg  0.06614382  0.34539301  0.97897462     1.58000
C274        C  0.46458148  0.11089982  0.97412378     0.93500
O275        O  0.07183722  0.36862568  0.91881517    -0.80200
H276        H  0.45415618  0.20433799  0.90732152    -0.05500
C277        C  0.01948962  0.20094150  0.04948064     0.88400
O278        O  0.42437022  0.25197158  0.01717766    -0.74700
O279        O  0.06897607  0.29750090  0.95810611    -0.87500
O280        O  0.97986805  0.13863083  0.95171162    -0.80300
C281        C  0.07195534  0.21670964  0.88842737     0.93600
C282        C  0.07474403  0.36080759  0.88484146     0.93400
Mg283      Mg  0.44005757  0.16189640  0.02040068     1.58000
O284        O  0.43456586  0.13839367  0.08049144    -0.80200
O285        O  0.44006202  0.18073736  0.95902395    -0.74400
O286        O  0.07168428  0.24795783  0.88427487    -0.80300
O287        O  0.06037252  0.39580293  0.99693406    -0.82000
O288        O  0.43365433  0.25980677  0.11511791    -0.80300
C289        C  0.46440885  0.20225903  0.93455000     0.87900
O290        O  0.43689106  0.20977433  0.04128915    -0.87500
O291        O  0.00142956  0.19727954  0.02062952    -0.87600
O292        O  0.01347331  0.21472228  0.07871753    -0.74600
Mg293      Mg  0.03397461  0.27167889  0.90809095     1.58000
O294        O  0.05685486  0.19501663  0.91627596    -0.82000
H295        H  0.46517668  0.31502301  0.95006390    -0.05700
O296        O  0.00651704  0.28627590  0.05863229    -0.87300
H297        H  0.05184060  0.30282094  0.09215904    -0.05500
H298        H  0.38627330  0.19447616  0.01785037    -0.05700
C299        C  0.04153287  0.30494473  0.06497336     0.87800
C300        C  0.48645325  0.30647485  0.95015084     0.88400
C301        C  0.41448817  0.21763424  0.02574915     0.88500
H302        H  0.04086325  0.19252567  0.04976513    -0.05700
O303        O  0.08180771  0.25558843  0.98229533    -0.74700
Mg304      Mg  0.47147714  0.23548792  0.09148544     1.58000
H305        H  0.11975819  0.31310022  0.98131429    -0.05700
C306        C  0.04175980  0.39656012  0.02488006     0.93500
O307        O  0.44961475  0.31296590  0.08294368    -0.81900
C308        C  0.43395924  0.29139214  0.11074571     0.93500
O309        O  0.06802892  0.32756077  0.87466053    -0.81900
Mg310      Mg  0.02871463  0.19700760  0.96889784     1.58200
O311        O  0.52668941  0.36894615  0.04744054    -0.80300
O312        O  0.44609585  0.11168134  0.00218020    -0.82000
O313        O  0.14704912  0.02122276  0.67843408    -0.87500
C314        C  0.18502507  0.10831848  0.75358870     0.88500
Mg315      Mg  0.18073715  0.01936970  0.63213634     1.58100
O316        O  0.10920954  0.08881809  0.69268616    -0.87300
O317        O  0.08962265  0.00394667  0.69816216    -0.74600
C318        C  0.23023553  0.18315097  0.54770628     0.93500
O319        O  0.23313956  0.08051288  0.70058921    -0.74400
O320        O  0.24556417  0.16215049  0.54731057    -0.81900
Mg321      Mg  0.17746510  0.03528535  0.73058013     1.58000
C322        C  0.13025881  0.18638126  0.63890156     0.93500
O323        O  0.12735913  0.48987930  0.76245211    -0.80200
H324        H  0.05711630  0.05335178  0.67119844    -0.05500
C325        C  0.21755231  0.16959142  0.65331758     0.88400
O326        O  0.14378604  0.02818830  0.58971318    -0.74700
O327        O  0.16073026  0.07651323  0.74097866    -0.87500
O328        O  0.11401655  0.16013858  0.66267858    -0.80300
C329        C  0.10492916  0.13400208  0.77725340     0.93600
C330        C  0.10063306  0.48379818  0.78465091     0.93400
Mg331      Mg  0.15174784  0.13070374  0.60077289     1.58000
O332        O  0.20081542  0.17419603  0.56705796    -0.80200
O333        O  0.09683004  0.08616108  0.63237954    -0.74400
O334        O  0.09994240  0.10000166  0.78146530    -0.80300
O335        O  0.18828127  0.48660946  0.72234472    -0.82000
O336        O  0.23475702  0.07044990  0.55238651    -0.80300
C337        C  0.08653436  0.07539700  0.66594752     0.87900
O338        O  0.17013907  0.09060964  0.59093559    -0.87500
O339        O  0.18286514  0.14595056  0.65272138    -0.87600
O340        O  0.24079763  0.16423661  0.63436697    -0.74600
Mg341      Mg  0.09886136  0.05215962  0.73964197     1.58000
O342        O  0.11931435  0.15341507  0.74792476    -0.82000
H343        H  0.10048038  0.97302969  0.66033072    -0.05700
O344        O  0.22128181  0.07920752  0.64038738    -0.87300
H345        H  0.27325547  0.11416724  0.66239993    -0.05500
H346        H  0.12743083  0.05729907  0.55570179    -0.05700
C347        C  0.24374891  0.09206393  0.66728223     0.87800
C348        C  0.11211390  0.99833189  0.67803522     0.88400
C349        C  0.14671373  0.05893870  0.57742553     0.88500
H350        H  0.22833182  0.19514160  0.67054501    -0.05700
O351        O  0.18821267  0.13911888  0.74105876    -0.74700
Mg352      Mg  0.23282510  0.11637059  0.59383237     1.58000
H353        H  0.20483830  0.11000148  0.77474710    -0.05700
C354        C  0.20157280  0.48136883  0.69271952     0.93500
O355        O  0.21490123  0.01645649  0.58497629    -0.81900
C356        C  0.23074387  0.03691081  0.55650588     0.93500
O357        O  0.08787855  0.00703670  0.78698046    -0.81900
Mg358      Mg  0.15090694  0.14861467  0.69967222     1.58200
O359        O  0.21773455  0.50804282  0.66939885    -0.80300
O360        O  0.14052941  0.17945398  0.60816446    -0.82000
C361        C  0.12001226  0.20365380  0.85635096     0.03100
C362        C  0.08399278  0.20104626  0.85761709     0.03000
C363        C  0.05493709  0.17625757  0.83267282    -0.17500
C364        C  0.06016293  0.15279289  0.80732558     0.03100
C365        C  0.09556585  0.15375363  0.80688336     0.03000
C366        C  0.12530546  0.18000573  0.83075384    -0.17500
H367        H  0.15259782  0.18116249  0.83020521     0.05100
H368        H  0.02736943  0.17453692  0.83359311     0.05100
C369        C  0.11894691  0.42534751  0.85454061     0.03100
C370        C  0.08311487  0.39057902  0.85647497     0.03000
C371        C  0.05231281  0.38621432  0.83410321    -0.17500
C372        C  0.05574856  0.41603703  0.81089282     0.03100
C373        C  0.09063959  0.45183279  0.81122170     0.03000
C374        C  0.12151790  0.45532124  0.83246660    -0.17500
H375        H  0.14862496  0.48243305  0.83176731     0.05100
H376        H  0.02526606  0.35909967  0.83466618     0.05100
O377        O  0.36702018  0.02869282  0.64587577    -0.87500
C378        C  0.37398594  0.13150018  0.64030821     0.88500
Mg379      Mg  0.36956116  0.50217396  0.69738773     1.58100
O380        O  0.44648684  0.11463585  0.60771921    -0.87300
O381        O  0.37885328  0.03232498  0.58685461    -0.74600
C382        C  0.52925030  0.13068067  0.77982249     0.93500
O383        O  0.34524523  0.06850760  0.70829121    -0.74400
O384        O  0.49758999  0.10165695  0.79047724    -0.81900
Mg385      Mg  0.32588972  0.04728008  0.64709027     1.58000
C386        C  0.05036162  0.20084024  0.64073683     0.93500
O387        O  0.30161502  0.02831430  0.58755040    -0.80200
H388        H  0.46594084  0.08873545  0.57404710    -0.05500
C389        C  0.46660649  0.15691009  0.71653982     0.88400
O390        O  0.42904457  0.01214901  0.68395992    -0.74700
O391        O  0.36903559  0.10170409  0.62517566    -0.87500
O392        O  0.02392227  0.18122555  0.61810420    -0.80300
C393        C  0.44965702  0.18968780  0.55369015     0.93600
C394        C  0.30708115  0.04025855  0.55396138     0.93400
Mg395      Mg  0.01031453  0.12361819  0.68655197     1.58000
O396        O  0.03466067  0.14286162  0.74628931    -0.80200
O397        O  0.49113404  0.10221369  0.62532941    -0.74400
O398        O  0.41980417  0.15651082  0.54792020    -0.80300
O399        O  0.28116689  0.48582714  0.66436523    -0.82000
O400        O  0.41770473  0.01416712  0.78446583    -0.80300
C401        C  0.46757168  0.10139872  0.60114063     0.87900
O402        O  0.46739781  0.06909190  0.70821848    -0.87500
O403        O  0.46891965  0.14185386  0.68756399    -0.87600
O404        O  0.45708021  0.13815178  0.74659884    -0.74600
Mg405      Mg  0.39590346  0.09479710  0.57462906     1.58000
O406        O  0.46825004  0.19808080  0.58390879    -0.82000
H407        H  0.36237263  0.98395270  0.61705058    -0.05700
O408        O  0.38980479  0.05586629  0.72569584    -0.87300
H409        H  0.37048865  0.08175915  0.75954488    -0.05500
H410        H  0.48695652  0.03713337  0.68539384    -0.05700
C411        C  0.36878871  0.06915799  0.73240162     0.87800
C412        C  0.36913988  0.01353918  0.61688983     0.88400
C413        C  0.46233284  0.03933832  0.69285956     0.88500
H414        H  0.47308249  0.18640197  0.71635898    -0.05700
O415        O  0.40722794  0.15872138  0.64924098    -0.74700
Mg416      Mg  0.44052823  0.07579861  0.75868734     1.58000
H417        H  0.34930366  0.13369699  0.64757293    -0.05700
C418        C  0.28586511  0.46964579  0.69231688     0.93500
O419        O  0.36834560  0.47263003  0.74932700    -0.81900
C420        C  0.38772713  0.48104915  0.77905565     0.93500
O421        O  0.33880670  0.06904928  0.54306149    -0.81900
Mg422      Mg  0.46662234  0.16840206  0.63593273     1.58200
O423        O  0.31218859  0.48925265  0.71508346    -0.80300
O424        O  0.05464568  0.18497453  0.66917095    -0.82000
O425        O  0.47469199  0.33604317  0.68805042    -0.87500
C426        C  0.45379748  0.42244590  0.69309991     0.88500
Mg427      Mg  0.47509965  0.30927988  0.63595200     1.58100
O428        O  0.38558491  0.33009812  0.72495134    -0.87300
O429        O  0.45694701  0.32305636  0.74571255    -0.74600
C430        C  0.30882080  0.25907460  0.55061599     0.93500
O431        O  0.49095205  0.39749273  0.62678532    -0.74400
O432        O  0.34241157  0.26715545  0.54038178    -0.81900
Mg433      Mg  0.00972220  0.39767529  0.68848501     1.58000
C434        C  0.27532525  0.29462050  0.69054823     0.93500
O435        O  0.03288433  0.40364024  0.74871019    -0.80200
H436        H  0.36922702  0.28477393  0.75825404    -0.05500
C437        C  0.36401936  0.34947342  0.61653706     0.88400
O438        O  0.41683724  0.25556173  0.64824843    -0.74700
O439        O  0.46180978  0.40023898  0.70887186    -0.87500
O440        O  0.30289225  0.31007950  0.71336404    -0.80300
C441        C  0.38135894  0.40340437  0.77765658     0.93600
C442        C  0.52529973  0.40649569  0.78270965     0.93400
Mg443      Mg  0.32604491  0.26949369  0.64495494     1.58000
O444        O  0.30145226  0.26200588  0.58471482    -0.80200
O445        O  0.34551046  0.27044748  0.70639003    -0.74400
O446        O  0.41244507  0.40305814  0.78206582    -0.80300
O447        O  0.06015603  0.39202502  0.67118433    -0.82000
O448        O  0.42445002  0.26578437  0.55049485    -0.80300
C449        C  0.36698782  0.29498678  0.73110098     0.87900
O450        O  0.37411641  0.26723713  0.62407296    -0.87500
O451        O  0.36083226  0.33134319  0.64510079    -0.87600
O452        O  0.37801132  0.34399039  0.58728749    -0.74600
Mg453      Mg  0.43614771  0.36507905  0.75854273     1.58000
O454        O  0.35953233  0.38786960  0.74973955    -0.82000
H455        H  0.47972334  0.29636041  0.71645762    -0.05700
O456        O  0.45026982  0.33806076  0.60811002    -0.87300
H457        H  0.46722772  0.38355421  0.57486409    -0.05500
H458        H  0.35975312  0.21661608  0.64699785    -0.05700
C459        C  0.46922347  0.37316973  0.60201696     0.87800
C460        C  0.47108441  0.31762482  0.71652344     0.88400
C461        C  0.38249273  0.24511440  0.63943586     0.88500
H462        H  0.35510570  0.37053124  0.61656843    -0.05700
O463        O  0.41957735  0.41227439  0.68405484    -0.74700
Mg464      Mg  0.39934708  0.30251414  0.57439711     1.58000
H465        H  0.47677645  0.45073318  0.68530371    -0.05700
C466        C  0.06110623  0.37354906  0.64303096     0.93500
O467        O  0.47762468  0.28229970  0.58306047    -0.81900
C468        C  0.45629741  0.26689371  0.55488953     0.93500
O469        O  0.49208285  0.39935859  0.79282849    -0.81900
Mg470      Mg  0.36115372  0.35912585  0.69699545     1.58200
O471        O  0.03363153  0.35848086  0.62009243    -0.80300
O472        O  0.27590050  0.27533547  0.66288821    -0.82000
C473        C  0.31923665  0.39426423  0.85893655     0.03100
C474        C  0.32137481  0.43043697  0.85948239     0.03000
C475        C  0.34767293  0.45959216  0.83550225    -0.17500
C476        C  0.37008725  0.45303877  0.80965613     0.03100
C477        C  0.36624428  0.41632241  0.80822392     0.03000
C478        C  0.34142448  0.38779227  0.83322227    -0.17500
H479        H  0.33887241  0.35972700  0.83224027     0.05100
H480        H  0.34966770  0.48739817  0.83601384     0.05100
C481        C  0.02137080  0.27762532  0.47542633     0.03100
C482        C  0.01798260  0.24099130  0.47448021     0.03000
C483        C  0.49113797  0.21169486  0.49807816    -0.17500
C484        C  0.46817194  0.21799026  0.52326640     0.03100
C485        C  0.47247716  0.25484566  0.52473083     0.03000
C486        C  0.49863648  0.28393997  0.50070524    -0.17500
H487        H  0.50105603  0.31194067  0.50146402     0.05100
H488        H  0.48864275  0.18366090  0.49731753     0.05100
C489        C  0.25427260  0.27796281  0.47561630     0.03100
C490        C  0.21688599  0.24501080  0.47759444     0.03000
C491        C  0.21155920  0.21469070  0.50071899    -0.17500
C492        C  0.24159621  0.21613313  0.52234948     0.03100
C493        C  0.27829138  0.25009817  0.52217566     0.03000
C494        C  0.28399623  0.27994684  0.49811872    -0.17500
H495        H  0.31207109  0.30590430  0.49757831     0.05100
H496        H  0.18348590  0.18871577  0.50108905     0.05100
C497        C  0.25136420  0.46897098  0.47704030     0.03100
C498        C  0.21647609  0.46911492  0.47713244     0.03000
C499        C  0.21197286  0.99340147  0.50228581    -0.17500
C500        C  0.24120087  0.01821584  0.52682204     0.03100
C501        C  0.27609700  0.01813617  0.52671972     0.03000
C502        C  0.28067550  0.99372291  0.50185521    -0.17500
H503        H  0.30783132  0.99456439  0.50130778     0.05100
H504        H  0.18506000  0.99308627  0.50264740     0.05100
C505        C  0.03992987  0.01006322  0.99503448     0.03100
C506        C  0.01186329  0.47614953  0.01204324     0.03100
C507        C  0.47445029  0.46924566  0.01557079     0.03100
C508        C  0.46565921  0.99672968  0.00297095     0.03100
C509        C  0.99373474  0.03068558  0.98602547     0.03100
C510        C  0.03117216  0.03763526  0.98261070     0.03100
C511        C  0.35273803  0.14728906  0.33614619     0.03100
C512        C  0.31262419  0.12471168  0.33408930     0.03100
C513        C  0.29078744  0.14272875  0.33450330     0.03100
C514        C  0.30910084  0.18307076  0.33208149     0.03100
C515        C  0.34924929  0.20564980  0.33388426     0.03100
C516        C  0.37103581  0.18759194  0.33384738     0.03100
C517        C  0.19637786  0.32550433  0.67748371     0.03100
C518        C  0.20398243  0.36341427  0.68089183     0.03100
C519        C  0.17633443  0.37245553  0.66950338     0.03100
C520        C  0.14159571  0.34423093  0.65362802     0.03100
C521        C  0.13409733  0.30641829  0.65004852     0.03100
C522        C  0.16163482  0.29724682  0.66154329     0.03100
C523        C  0.11353605  0.35434596  0.64333743    -0.12500
C524        C  0.09100567  0.36503992  0.63995655    -0.14000
C525        C  0.24593177  0.30385746  0.69286788    -0.12500
C526        C  0.22396252  0.31511330  0.68863921    -0.14000
C527        C  0.26404730  0.42870734  0.69598699    -0.12500
C528        C  0.24051875  0.39504394  0.69299683    -0.14000
C529        C  0.09737506  0.27495087  0.63835224    -0.12500
C530        C  0.07314829  0.24151605  0.63605870    -0.14000
C531        C  0.15362907  0.25829852  0.65611866    -0.12500
C532        C  0.14258445  0.22521679  0.64873506    -0.14000
C533        C  0.19288961  0.44355759  0.68323995    -0.12500
C534        C  0.18373138  0.41104115  0.67557658    -0.14000
C535        C  0.47308661  0.08099603  0.97077029    -0.12500
C536        C  0.48385409  0.05856488  0.97452843    -0.14000
C537        C  0.03279081  0.42616372  0.02783468    -0.12500
C538        C  0.02180967  0.44838587  0.02375824    -0.14000
C539        C  0.09623666  0.09765914  0.96798975    -0.12500
C540        C  0.06275375  0.07390416  0.97028173    -0.14000
C541        C  0.40962383  0.40899528  0.03106058    -0.12500
C542        C  0.44296170  0.43313642  0.02839896    -0.14000
C543        C  0.42740851  0.48976720  0.00865661    -0.12500
C544        C  0.39499970  0.48026204  0.01623490    -0.14000
C545        C  0.07822167  0.01703658  0.98942476    -0.12500
C546        C  0.11075619  0.02673689  0.98212955    -0.14000
C547        C  0.29481436  0.08363926  0.32712385    -0.12500
C548        C  0.28660853  0.05129477  0.31890325    -0.14000
C549        C  0.36727047  0.24687927  0.33987181    -0.12500
C550        C  0.37592535  0.27947521  0.34745060    -0.14000
C551        C  0.25027755  0.11976209  0.34209895    -0.12500
C552        C  0.21828520  0.09557759  0.35077113    -0.14000
C553        C  0.44353723  0.23394280  0.31728373    -0.12500
C554        C  0.41151624  0.21035133  0.32633609    -0.14000
C555        C  0.26328662  0.20970823  0.31747675    -0.12500
C556        C  0.28658755  0.20065111  0.32431031    -0.14000
C557        C  0.39844103  0.12026384  0.34978096    -0.12500
C558        C  0.37529741  0.12966594  0.34349988    -0.14000
O559        O  0.13800800  0.66700179  0.35596577    -0.87500
C560        C  0.11232579  0.75174583  0.36264716     0.88500
Mg561      Mg  0.14045155  0.63995578  0.30457254     1.58100
O562        O  0.04353413  0.65865263  0.39277869    -0.87300
O563        O  0.11660491  0.65304049  0.41280245    -0.74600
C564        C  0.97731954  0.59550181  0.21574560     0.93500
O565        O  0.15373831  0.72961813  0.29509111    -0.74400
O566        O  0.01071409  0.60330982  0.20522540    -0.81900
Mg567      Mg  0.16977098  0.72905211  0.35689678     1.58000
C568        C  0.43278418  0.61887642  0.35083709     0.93500
O569        O  0.19260673  0.73498472  0.41621075    -0.80200
H570        H  0.02716006  0.61239360  0.42472244    -0.05500
C571        C  0.02990186  0.68228660  0.28322785     0.88400
O572        O  0.08139688  0.58695780  0.31467655    -0.74700
O573        O  0.11982901  0.72849160  0.37669585    -0.87500
O574        O  0.45846111  0.63931665  0.37462104    -0.80300
C575        C  0.03540577  0.72911473  0.44492094     0.93600
C576        C  0.18558260  0.73687049  0.45042075     0.93400
Mg577      Mg  0.99122697  0.60069474  0.30940788     1.58000
O578        O  0.46969958  0.59649680  0.24993719    -0.80200
O579        O  0.00722376  0.59939629  0.37143567    -0.74400
O580        O  0.06715072  0.72991209  0.45043097    -0.80300
O581        O  0.22219149  0.72812501  0.34086413    -0.82000
O582        O  0.09170307  0.59868218  0.21716519    -0.80300
C583        C  0.02601316  0.62332557  0.39757632     0.87900
O584        O  0.04077056  0.60100952  0.29010693    -0.87500
O585        O  0.02354459  0.66252378  0.31136105    -0.87600
O586        O  0.04628999  0.67802248  0.25508782    -0.74600
Mg587      Mg  0.09446430  0.69392694  0.42659746     1.58000
O588        O  0.01505378  0.71414227  0.41599250    -0.82000
H589        H  0.14120712  0.62696463  0.38560373    -0.05700
O590        O  0.11779052  0.67008168  0.27453290    -0.87300
H591        H  0.13448316  0.71576671  0.24172629    -0.05500
H592        H  0.02420731  0.54911058  0.31110929    -0.05700
C593        C  0.13544301  0.70529048  0.26916446     0.87800
C594        C  0.13262868  0.64824058  0.38465105     0.88400
C595        C  0.04770028  0.57763946  0.30482830     0.88500
H596        H  0.02196917  0.70406670  0.28282223    -0.05700
O597        O  0.07833004  0.74209681  0.35351746    -0.74700
Mg598      Mg  0.06703195  0.63618827  0.24076641     1.58000
H599        H  0.13546268  0.78053040  0.35659551    -0.05700
C600        C  0.22826972  0.70976470  0.31588965     0.93500
O601        O  0.14319809  0.61175229  0.25138540    -0.81900
C602        C  0.12234094  0.59749765  0.22250960     0.93500
O603        O  0.15207975  0.72882744  0.46125431    -0.81900
Mg604      Mg  0.01972548  0.68789601  0.36304663     1.58200
O605        O  0.20244668  0.68697364  0.29322627    -0.80300
O606        O  0.43870578  0.60163971  0.32466050    -0.82000
C607        C  0.13846541  0.58556039  0.19187506     0.03100
C608        C  0.13803817  0.55030249  0.19139732     0.03000
C609        C  0.16119819  0.54526395  0.16546841    -0.17500
C610        C  0.18503779  0.57451818  0.14040749     0.03100
C611        C  0.18504017  0.60962962  0.14066421     0.03000
C612        C  0.16167428  0.61445631  0.16628667    -0.17500
H613        H  0.16231123  0.64162460  0.16696735     0.05100
H614        H  0.16123761  0.51844300  0.16526178     0.05100
C615        C  0.44650542  0.58759237  0.18842208     0.03100
C616        C  0.40917898  0.55466603  0.19134791     0.03000
C617        C  0.37915699  0.55343068  0.17052092    -0.17500
C618        C  0.38449656  0.58283537  0.14610531     0.03100
C619        C  0.42172436  0.61556198  0.14262185     0.03000
C620        C  0.45208297  0.61754421  0.16405636    -0.17500
H621        H  0.48039954  0.64299443  0.16203065     0.05100
H622        H  0.35077695  0.52793742  0.17232009     0.05100
O623        O  0.14515686  0.96090229  0.34404577    -0.87500
C624        C  0.06263687  0.91151178  0.42162896     0.88500
Mg625      Mg  0.14312276  0.99408899  0.29784408     1.58100
O626        O  0.07704787  0.85397979  0.35759951    -0.87300
O627        O  0.16247114  0.92008104  0.36040213    -0.74600
C628        C  0.47499067  0.87750923  0.21833744     0.93500
O629        O  0.08796143  0.98727942  0.36959130    -0.74400
O630        O  0.99849017  0.91389462  0.21822516    -0.81900
Mg631      Mg  0.13480601  0.97813525  0.39678673     1.58000
C632        C  0.47813485  0.76897725  0.30955005     0.93500
O633        O  0.18148058  0.97305944  0.42761607    -0.80200
H634        H  0.11008620  0.83675321  0.33302250    -0.05500
C635        C  0.99376944  0.87926813  0.32550568     0.88400
O636        O  0.12990075  0.94486376  0.25715021    -0.74700
O637        O  0.09380858  0.91919410  0.40817142    -0.87500
O638        O  0.50448992  0.78221556  0.33359687    -0.80300
C639        C  0.03906674  0.80537554  0.44456211     0.93600
C640        C  0.18602159  0.95029318  0.44853422     0.93400
Mg641      Mg  0.02660398  0.85025762  0.27016564     1.58000
O642        O  0.47964382  0.85501747  0.23955487    -0.80200
O643        O  0.07367429  0.84136330  0.29733024    -0.74400
O644        O  0.07286345  0.83522945  0.44695706    -0.80300
O645        O  0.18178401  0.53968221  0.38515600    -0.82000
O646        O  0.08755601  0.99285244  0.22040910    -0.80300
C647        C  0.08778946  0.84368220  0.32976653     0.87900
O648        O  0.06735832  0.90908675  0.25876092    -0.87500
O649        O  0.01641376  0.86752101  0.32297104    -0.87600
O650        O  0.99860477  0.90795671  0.30674923    -0.74600
Mg651      Mg  0.11652249  0.88079970  0.40299225     1.58000
O652        O  0.01765767  0.79903327  0.41653629    -0.82000
H653        H  0.19190782  0.96301280  0.32313207    -0.05700
O654        O  0.08432049  0.97440362  0.30937446    -0.87300
H655        H  0.05163550  0.99206608  0.33394136    -0.05500
H656        H  0.09909806  0.89782869  0.22413644    -0.05700
C657        C  0.07379704  0.98494748  0.33718546     0.87800
C658        C  0.16758975  0.94887451  0.34161840     0.88400
C659        C  0.09849744  0.91663123  0.24535075     0.88500
H660        H  0.96952784  0.86497936  0.34405863    -0.05700
O661        O  0.03127897  0.88309456  0.40993666    -0.74700
Mg662      Mg  0.04439752  0.94726461  0.26411917     1.58000
H663        H  0.06196236  0.93025032  0.44287194    -0.05700
C664        C  0.18384880  0.55989048  0.35742714     0.93500
O665        O  0.14355934  0.52869005  0.24972614    -0.81900
C666        C  0.12150975  0.02245711  0.22224474     0.93500
O667        O  0.16233799  0.91396150  0.44861427    -0.81900
Mg668      Mg  0.01837628  0.83410667  0.36889811     1.58200
O669        O  0.15816575  0.54679546  0.33263626    -0.80300
O670        O  0.47974681  0.78885167  0.28174817    -0.82000
O671        O  0.31490671  0.85101527  0.34326773    -0.87500
C672        C  0.34852416  0.93455913  0.42062071     0.88500
Mg673      Mg  0.34896817  0.85330065  0.29602515     1.58100
O674        O  0.27382878  0.91684821  0.35842413    -0.87300
O675        O  0.25629548  0.83179908  0.36014900    -0.74600
C676        C  0.39747571  0.52191916  0.21762554     0.93500
O677        O  0.39947554  0.91141885  0.36617998    -0.74400
O678        O  0.41136352  0.99960520  0.21620445    -0.81900
Mg679      Mg  0.34448493  0.86364585  0.39525867     1.58000
C680        C  0.28683552  0.51642022  0.31181992     0.93500
O681        O  0.29475005  0.81712975  0.42843094    -0.80200
H682        H  0.22228624  0.88280929  0.33522452    -0.05500
C683        C  0.38232968  0.00228988  0.32407744     0.88400
O684        O  0.31119204  0.86455215  0.25660817    -0.74700
O685        O  0.32495642  0.90274892  0.40739865    -0.87500
O686        O  0.27446638  0.49091119  0.33666680    -0.80300
C687        C  0.26263358  0.95279749  0.44586372     0.93600
C688        C  0.26596589  0.80970109  0.44853941     0.93400
Mg689      Mg  0.31824063  0.96716537  0.27032177     1.58000
O690        O  0.36899992  0.51438138  0.23832078    -0.80200
O691        O  0.26261366  0.91944187  0.29868107    -0.74400
O692        O  0.25901202  0.91933960  0.44750345    -0.80300
O693        O  0.35931858  0.81737364  0.38297198    -0.82000
O694        O  0.40223993  0.90800730  0.21685119    -0.80300
C695        C  0.25168931  0.90551085  0.33126323     0.87900
O696        O  0.33703506  0.92722346  0.25750652    -0.87500
O697        O  0.34751511  0.97915454  0.32239763    -0.87600
O698        O  0.40576480  0.99778704  0.30434569    -0.74600
Mg699      Mg  0.26258972  0.87713292  0.40320023     1.58000
O700        O  0.27866851  0.97521349  0.41867557    -0.82000
H701        H  0.27007191  0.80312654  0.32243537    -0.05700
O702        O  0.38831255  0.91301107  0.30621432    -0.87300
H703        H  0.43957741  0.94804843  0.32948970    -0.05500
H704        H  0.29251911  0.89298426  0.22449687    -0.05700
C705        C  0.41031958  0.92501654  0.33347893     0.87800
C706        C  0.28023275  0.82752389  0.34115605     0.88400
C707        C  0.31314884  0.89515064  0.24494155     0.88500
H708        H  0.39305203  0.52669026  0.34284454    -0.05700
O709        O  0.35062526  0.96526696  0.40923384    -0.74700
Mg710      Mg  0.39933169  0.95223078  0.26102381     1.58000
H711        H  0.36882251  0.93641200  0.44129195    -0.05700
C712        C  0.37596212  0.81447550  0.35436834     0.93500
O713        O  0.38203771  0.85288822  0.24738415    -0.81900
C714        C  0.39791749  0.87414566  0.21952280     0.93500
O715        O  0.25093206  0.83091771  0.44820661    -0.81900
Mg716      Mg  0.31295655  0.97645097  0.36979984     1.58200
O717        O  0.38803991  0.83974977  0.32931967    -0.80300
O718        O  0.30377354  0.51375475  0.28330354    -0.82000
C719        C  0.40893605  0.85612191  0.18953844     0.03100
C720        C  0.44484593  0.85806265  0.18941338     0.03000
C721        C  0.45049828  0.83420741  0.16474426    -0.17500
C722        C  0.42152691  0.80753831  0.14095718     0.03100
C723        C  0.38495006  0.80347138  0.14243161     0.03000
C724        C  0.37925407  0.82795495  0.16664521    -0.17500
H725        H  0.35139257  0.82556469  0.16715493     0.05100
H726        H  0.47837863  0.83658707  0.16394726     0.05100
O727        O  0.19021566  0.98415561  0.98612160    -0.87500
C728        C  0.27641288  0.52256926  0.91093974     0.88500
Mg729      Mg  0.18776619  0.01662134  0.03333720     1.58100
O730        O  0.25856992  0.94802069  0.97269271    -0.87300
O731        O  0.17313295  0.92643096  0.96651088    -0.74600
C732        C  0.35274576  0.57165464  0.11896907     0.93500
O733        O  0.24836296  0.57079200  0.96591466    -0.74400
O734        O  0.32948755  0.58428365  0.12035934    -0.81900
Mg735      Mg  0.20407515  0.01510365  0.93444118     1.58000
C736        C  0.35715661  0.97062222  0.02574119     0.93500
O737        O  0.16028291  0.96532602  0.90063574    -0.80200
H738        H  0.22462658  0.89593310  0.99470847    -0.05500
C739        C  0.33811861  0.55831776  0.01210756     0.88400
O740        O  0.19832544  0.97995381  0.07455968    -0.74700
O741        O  0.24505864  0.99820625  0.92379523    -0.87500
O742        O  0.33051615  0.95392698  0.00224965    -0.80300
C743        C  0.30221986  0.94108312  0.88861746     0.93600
C744        C  0.15209879  0.93649613  0.88017558     0.93400
Mg745      Mg  0.30240748  0.49300079  0.06423418     1.58000
O746        O  0.34662029  0.54390652  0.09767608    -0.80200
O747        O  0.25803635  0.93683452  0.03300107    -0.74400
O748        O  0.26805708  0.93537189  0.88436138    -0.80300
O749        O  0.15505569  0.52515397  0.94280473    -0.82000
O750        O  0.23775110  0.57015252  0.11443832    -0.80300
C751        C  0.24631823  0.92574290  0.99962299     0.87900
O752        O  0.26079134  0.50884424  0.07489294    -0.87500
O753        O  0.31538793  0.52326965  0.01226814    -0.87600
O754        O  0.33236521  0.58090514  0.03206306    -0.74600
Mg755      Mg  0.22097268  0.93567845  0.92570308     1.58000
O756        O  0.32230652  0.95752763  0.91735956    -0.82000
H757        H  0.14205574  0.93761045  0.00348101    -0.05700
O758        O  0.24703090  0.55878096  0.02603388    -0.87300
H759        H  0.28129121  0.61114622  0.00477887    -0.05500
H760        H  0.22829138  0.96455695  0.10847294    -0.05700
C761        C  0.25959902  0.58143242  0.99943906     0.87800
C762        C  0.16734685  0.94913549  0.98622235     0.88400
C763        C  0.22937989  0.98407076  0.08733124     0.88500
H764        H  0.36336156  0.56996872  0.99469768    -0.05700
O765        O  0.30745333  0.52658013  0.92360104    -0.74700
Mg766      Mg  0.28429049  0.57104736  0.07292110     1.58000
H767        H  0.27748416  0.54181662  0.88950765    -0.05700
C768        C  0.14888767  0.53696304  0.97303201     0.93500
O769        O  0.18355880  0.54898403  0.08169114    -0.81900
C770        C  0.20376990  0.56467078  0.11054050     0.93500
O771        O  0.17417508  0.92233216  0.87874284    -0.81900
Mg772      Mg  0.31789790  0.49028860  0.96536489     1.58200
O773        O  0.17510545  0.55324553  0.99700860    -0.80300
O774        O  0.35169350  0.98346409  0.05566256    -0.82000
O775        O  0.19642770  0.70167931  0.02053160    -0.87500
C776        C  0.29747444  0.70676500  0.02621782     0.88500
Mg777      Mg  0.17012405  0.70417076  0.96869498     1.58100
O778        O  0.28207424  0.78063958  0.05825679    -0.87300
O779        O  0.19984798  0.71358355  0.07958071    -0.74600
C780        C  0.29745988  0.86369383  0.88658669     0.93500
O781        O  0.23526174  0.67878164  0.95876626    -0.74400
O782        O  0.26864910  0.83162947  0.87585913    -0.81900
Mg783      Mg  0.21374113  0.65944883  0.01977412     1.56200
C784        C  0.36909269  0.88543870  0.02608647     0.93500
O785        O  0.19454760  0.63504599  0.07956695    -0.80200
H786        H  0.25746543  0.80128833  0.09207548    -0.05500
C787        C  0.32419807  0.80083906  0.94941583     0.88400
O788        O  0.18062383  0.76424123  0.98211601    -0.74700
O789        O  0.26827075  0.70202993  0.04201647    -0.87500
O790        O  0.35004391  0.85855810  0.04831442    -0.80300
C791        C  0.35642160  0.78377395  0.11239656     0.93600
C792        C  0.20668676  0.64079158  0.11327180     0.93400
Mg793      Mg  0.29160932  0.84516941  0.97981815     1.58000
O794        O  0.31003638  0.86949850  0.92011724    -0.80200
O795        O  0.27085284  0.82624726  0.04091373    -0.74400
O796        O  0.32334872  0.75426880  0.11875390    -0.80300
O797        O  0.15240344  0.61542008  0.00164100    -0.82000
O798        O  0.18155241  0.75137955  0.88132685    -0.80300
C799        C  0.26968337  0.80245671  0.06496806     0.87900
O800        O  0.23712183  0.80215392  0.95785455    -0.87500
O801        O  0.30928549  0.80321337  0.97833268    -0.87600
O802        O  0.30535752  0.79111067  0.91926968    -0.74600
Mg803      Mg  0.26188906  0.73017142  0.09200660     1.58000
O804        O  0.36460615  0.80136693  0.08179245    -0.82000
H805        H  0.15193985  0.69756414  0.04868982    -0.05700
O806        O  0.22340977  0.72383481  0.94065929    -0.87300
H807        H  0.24926746  0.70386587  0.90766067    -0.05500
H808        H  0.20580442  0.82241534  0.98051810    -0.05700
C809        C  0.23646934  0.70245577  0.93449320     0.87800
C810        C  0.18130152  0.70404558  0.04927991     0.88400
C811        C  0.20772488  0.79747287  0.97313730     0.88500
H812        H  0.35358140  0.80739711  0.94973716    -0.05700
O813        O  0.32422551  0.73992076  0.01655934    -0.74700
Mg814      Mg  0.24313766  0.77448674  0.90740944     1.58000
H815        H  0.29939868  0.68184093  0.01878869    -0.05700
C816        C  0.13683544  0.61993321  0.97304575     0.93500
O817        O  0.14035414  0.70260509  0.91665652    -0.81900
C818        C  0.14849609  0.72155963  0.88682606     0.93500
O819        O  0.23551989  0.67286664  0.12412846    -0.81900
Mg820      Mg  0.33532756  0.80015651  0.02997925     1.58200
O821        O  0.15670300  0.64631063  0.95068504    -0.80300
O822        O  0.35289304  0.88960536  0.99778844    -0.82000
O823        O  0.50473174  0.81014550  0.97883863    -0.87500
C824        C  0.09155119  0.78983405  0.97355485     0.88500
Mg825      Mg  0.47759124  0.81060163  0.03049789     1.58100
O826        O  0.49938677  0.72108981  0.94102816    -0.87300
O827        O  0.49205358  0.79242348  0.92090314    -0.74600
C828        C  0.43101926  0.64586170  0.11440787     0.93500
O829        O  0.06586422  0.82641009  0.04043540    -0.74400
O830        O  0.43705487  0.67892737  0.12459678    -0.81900
Mg831      Mg  0.06614591  0.84539513  0.97897540     1.58000
C832        C  0.46458426  0.61090155  0.97412485     0.93500
O833        O  0.07183888  0.86862753  0.91881559    -0.80200
H834        H  0.45415874  0.70434006  0.90732034    -0.05500
C835        C  0.01949234  0.70094369  0.04948225     0.88400
O836        O  0.42437203  0.75197282  0.01717834    -0.74700
O837        O  0.06897860  0.79750310  0.95810684    -0.87500
O838        O  0.97987165  0.63863271  0.95171286    -0.80300
C839        C  0.07195752  0.71671145  0.88842797     0.93600
C840        C  0.07474568  0.86080929  0.88484189     0.93400
Mg841      Mg  0.44006025  0.66189822  0.02040130     1.58000
O842        O  0.43456783  0.63839520  0.08049176    -0.80200
O843        O  0.44006499  0.68073930  0.95902435    -0.74400
O844        O  0.07168624  0.74795953  0.88427518    -0.80300
O845        O  0.06037388  0.89580461  0.99693494    -0.82000
O846        O  0.43365575  0.75980804  0.11511850    -0.80300
C847        C  0.46441198  0.70226096  0.93455081     0.87900
O848        O  0.43689322  0.70977585  0.04128951    -0.87500
O849        O  0.00143257  0.69728148  0.02063082    -0.87600
O850        O  0.01347557  0.71472433  0.07871888    -0.74600
Mg851      Mg  0.03397709  0.77168084  0.90809186     1.58000
O852        O  0.05685776  0.69501895  0.91627702    -0.82000
H853        H  0.46518167  0.81502267  0.95006517    -0.05700
O854        O  0.00651912  0.78627777  0.05863329    -0.87300
H855        H  0.05184264  0.80282285  0.09216001    -0.05500
H856        H  0.38627154  0.69447434  0.01785007    -0.05700
C857        C  0.04153491  0.80494677  0.06497439     0.87800
C858        C  0.48645517  0.80647663  0.95015180     0.88400
C859        C  0.41449100  0.71763616  0.02574985     0.88500
H860        H  0.04086671  0.69252827  0.04976722    -0.05700
O861        O  0.08181020  0.75559061  0.98229654    -0.74700
Mg862      Mg  0.47147911  0.73548958  0.09148619     1.58000
H863        H  0.11975798  0.81310033  0.98131499    -0.05700
C864        C  0.04176121  0.89656177  0.02488091     0.93500
O865        O  0.44961639  0.81296739  0.08294457    -0.81900
C866        C  0.43396064  0.79139342  0.11074647     0.93500
O867        O  0.06803106  0.82756256  0.87466117    -0.81900
Mg868      Mg  0.02871765  0.69700981  0.96889911     1.58200
O869        O  0.52669118  0.86894786  0.04744144    -0.80300
O870        O  0.44609843  0.61168327  0.00218102    -0.82000
O871        O  0.14704938  0.52122202  0.67843526    -0.87500
C872        C  0.18502627  0.60831916  0.75358837     0.88500
Mg873      Mg  0.18073647  0.51936845  0.63213682     1.58100
O874        O  0.10921033  0.58881856  0.69268672    -0.87300
O875        O  0.08962301  0.50394678  0.69816336    -0.74600
C876        C  0.23023428  0.68314905  0.54770572     0.93500
O877        O  0.23313997  0.58051221  0.70058872    -0.74400
O878        O  0.24556285  0.66214853  0.54730980    -0.81900
Mg879      Mg  0.17746653  0.53528602  0.73058077     1.58000
C880        C  0.13025902  0.68638157  0.63890133     0.93500
O881        O  0.12735616  0.98987673  0.76244895    -0.80200
H882        H  0.05711773  0.55335325  0.67119985    -0.05500
C883        C  0.21755216  0.66959079  0.65331686     0.88400
O884        O  0.14378463  0.52818676  0.58971398    -0.74700
O885        O  0.16073151  0.57651381  0.74097927    -0.87500
O886        O  0.11401716  0.66013972  0.66267939    -0.80300
C887        C  0.10493011  0.63400276  0.77725385     0.93600
C888        C  0.10063197  0.98379759  0.78464951     0.93400
Mg889      Mg  0.15174707  0.63070272  0.60077310     1.58000
O890        O  0.20081430  0.67419428  0.56705752    -0.80200
O891        O  0.09682961  0.58616082  0.63238028    -0.74400
O892        O  0.09994299  0.60000215  0.78146575    -0.80300
O893        O  0.18828042  0.98660927  0.72234373    -0.82000
O894        O  0.23475621  0.57044821  0.55238642    -0.80300
C895        C  0.08653431  0.57539717  0.66594853     0.87900
O896        O  0.17013775  0.59060818  0.59093547    -0.87500
O897        O  0.18286495  0.64595011  0.65272110    -0.87600
O898        O  0.24079709  0.66423549  0.63436603    -0.74600
Mg899      Mg  0.09886205  0.55215994  0.73964269     1.58000
O900        O  0.11931569  0.65341586  0.74792533    -0.82000
H901        H  0.10048041  0.47302936  0.66033294    -0.05700
O902        O  0.22128078  0.57920600  0.64038705    -0.87300
H903        H  0.27325142  0.61416306  0.66239901    -0.05500
H904        H  0.12742768  0.55729692  0.55570064    -0.05700
C905        C  0.24374934  0.59206322  0.66728133     0.87800
C906        C  0.11211402  0.49833131  0.67803667     0.88400
C907        C  0.14671249  0.55893702  0.57742637     0.88500
H908        H  0.22833199  0.69514099  0.67054378    -0.05700
O909        O  0.18821403  0.63911939  0.74105859    -0.74700
Mg910      Mg  0.23282408  0.61636897  0.59383185     1.58000
H911        H  0.20484144  0.61000249  0.77474882    -0.05700
C912        C  0.20157270  0.98136951  0.69271863     0.93500
O913        O  0.21490005  0.51645473  0.58497629    -0.81900
C914        C  0.23074294  0.53690906  0.55650591     0.93500
O915        O  0.08787812  0.50703609  0.78698093    -0.81900
Mg916      Mg  0.15090769  0.64861502  0.69967227     1.58200
O917        O  0.21773485  0.00804418  0.66939872    -0.80300
O918        O  0.14052943  0.67945344  0.60816447    -0.82000
C919        C  0.12001358  0.70365471  0.85635144     0.03100
C920        C  0.08399433  0.70104738  0.85761767     0.03000
C921        C  0.05493834  0.67625872  0.83267339    -0.17500
C922        C  0.06016394  0.65279379  0.80732612     0.03100
C923        C  0.09556682  0.65375452  0.80688374     0.03000
C924        C  0.12530662  0.68000645  0.83075437    -0.17500
H925        H  0.15259817  0.68116309  0.83020580     0.05100
H926        H  0.02737102  0.67453773  0.83359421     0.05100
C927        C  0.11894764  0.92534924  0.85454029     0.03100
C928        C  0.08311586  0.89058043  0.85647517     0.03000
C929        C  0.05231333  0.88621468  0.83410339    -0.17500
C930        C  0.05574846  0.91603689  0.81089252     0.03100
C931        C  0.09063925  0.95183300  0.81122093     0.03000
C932        C  0.12151764  0.95532213  0.83246591    -0.17500
H933        H  0.14862630  0.98243643  0.83176665     0.05100
H934        H  0.02526788  0.85910064  0.83466654     0.05100
O935        O  0.36702068  0.52869305  0.64587569    -0.87500
C936        C  0.37398568  0.63149931  0.64030848     0.88500
Mg937      Mg  0.36956027  0.00217372  0.69738792     1.58100
O938        O  0.44648705  0.61463583  0.60771993    -0.87300
O939        O  0.37885403  0.53232484  0.58685441    -0.74600
C940        C  0.52925116  0.63068174  0.77982301     0.93500
O941        O  0.34524518  0.56850686  0.70829104    -0.74400
O942        O  0.49759084  0.60165799  0.79047764    -0.81900
Mg943      Mg  0.32588971  0.54727919  0.64709009     1.58000
C944        C  0.05036149  0.70084109  0.64073689     0.93500
O945        O  0.30161498  0.52831370  0.58755015    -0.80200
H946        H  0.46594191  0.58873716  0.57405123    -0.05500
C947        C  0.46660678  0.65691040  0.71654021     0.88400
O948        O  0.42904585  0.51215001  0.68395995    -0.74700
O949        O  0.36903515  0.60170352  0.62517577    -0.87500
O950        O  0.02392210  0.68122587  0.61810453    -0.80300
C951        C  0.44965637  0.68968706  0.55369049     0.93600
C952        C  0.30708129  0.54025793  0.55396116     0.93400
Mg953      Mg  0.01031529  0.62361918  0.68655248     1.58000
O954        O  0.03466162  0.64286288  0.74628987    -0.80200
O955        O  0.49113502  0.60221471  0.62533031    -0.74400
O956        O  0.41980376  0.65651003  0.54792046    -0.80300
O957        O  0.28116645  0.98582829  0.66436558    -0.82000
O958        O  0.41770550  0.51416752  0.78446580    -0.80300
C959        C  0.46757227  0.60139875  0.60114084     0.87900
O960        O  0.46739895  0.56909266  0.70821872    -0.87500
O961        O  0.46891997  0.64185435  0.68756443    -0.87600
O962        O  0.45708068  0.63815248  0.74659927    -0.74600
Mg963      Mg  0.39590360  0.59479656  0.57462919     1.58000
O964        O  0.46824922  0.69808022  0.58390924    -0.82000
H965        H  0.36237431  0.48395666  0.61705093    -0.05700
O966        O  0.38980547  0.55586636  0.72569530    -0.87300
H967        H  0.37048927  0.58175858  0.75954366    -0.05500
H968        H  0.48695844  0.53713444  0.68539329    -0.05700
C969        C  0.36878903  0.56915771  0.73240143     0.87800
C970        C  0.36914047  0.51353848  0.61688983     0.88400
C971        C  0.46233396  0.53933924  0.69285969     0.88500
H972        H  0.47308355  0.68640394  0.71635928    -0.05700
O973        O  0.40722711  0.65872045  0.64924156    -0.74700
Mg974      Mg  0.44052888  0.57579915  0.75868751     1.58000
H975        H  0.34930069  0.63369613  0.64757394    -0.05700
C976        C  0.28586445  0.96964659  0.69231710     0.93500
O977        O  0.36834450  0.97262954  0.74932740    -0.81900
C978        C  0.38772628  0.98104874  0.77905589     0.93500
O979        O  0.33880697  0.56904858  0.54306147    -0.81900
Mg980      Mg  0.46662205  0.66840187  0.63593300     1.58200
O981        O  0.31218792  0.98925303  0.71508381    -0.80300
O982        O  0.05464613  0.68497585  0.66917109    -0.82000
O983        O  0.47469042  0.83604210  0.68805068    -0.87500
C984        C  0.45379600  0.92244467  0.69310033     0.88500
Mg985      Mg  0.47509795  0.80927835  0.63595249     1.58100
O986        O  0.38558316  0.83009694  0.72495271    -0.87300
O987        O  0.45694521  0.82305518  0.74571289    -0.74600
C988        C  0.30881894  0.75907283  0.55061688     0.93500
O989        O  0.49095016  0.89749119  0.62678580    -0.74400
O990        O  0.34240970  0.76715363  0.54038266    -0.81900
Mg991      Mg  0.00972068  0.89767388  0.68848507     1.58000
C992        C  0.27532372  0.79461981  0.69054872     0.93500
O993        O  0.03288331  0.90363908  0.74871006    -0.80200
H994        H  0.36922580  0.78477161  0.75825924    -0.05500
C995        C  0.36401762  0.84947202  0.61653793     0.88400
O996        O  0.41683604  0.75556071  0.64824923    -0.74700
O997        O  0.46180824  0.90023757  0.70887207    -0.87500
O998        O  0.30289057  0.81007864  0.71336474    -0.80300
C999        C  0.38135818  0.90340394  0.77765729     0.93600
C1000       C  0.52529894  0.90649475  0.78270962     0.93400
Mg1001     Mg  0.32604318  0.76949241  0.64495607     1.58000
O1002       O  0.30145045  0.76200433  0.58471574    -0.80200
O1003       O  0.34550884  0.77044653  0.70639164    -0.74400
O1004       O  0.41244452  0.90305788  0.78206612    -0.80300
O1005       O  0.06015451  0.89202380  0.67118397    -0.82000
O1006       O  0.42444826  0.76578279  0.55049539    -0.80300
C1007       C  0.36698594  0.79498611  0.73110184     0.87900
O1008       O  0.37411505  0.76723620  0.62407393    -0.87500
O1009       O  0.36083059  0.83134196  0.64510173    -0.87600
O1010       O  0.37800941  0.84398869  0.58728843    -0.74600
Mg1011     Mg  0.43614642  0.86507810  0.75854324     1.58000
O1012       O  0.35953112  0.88786904  0.74974053    -0.82000
H1013       H  0.47972104  0.79636062  0.71645782    -0.05700
O1014       O  0.45026787  0.83805883  0.60811096    -0.87300
H1015       H  0.46722545  0.88355046  0.57486894    -0.05500
H1016       H  0.35975428  0.71661833  0.64699826    -0.05700
C1017       C  0.46922133  0.87316822  0.60201677     0.87800
C1018       C  0.47108270  0.81762333  0.71652372     0.88400
C1019       C  0.38249099  0.74511284  0.63943703     0.88500
H1020       H  0.35510344  0.87052947  0.61656897    -0.05700
O1021       O  0.41957584  0.91227338  0.68405551    -0.74700
Mg1022     Mg  0.39934513  0.80251241  0.57439798     1.58000
H1023       H  0.47677505  0.95073164  0.68530370    -0.05700
C1024       C  0.06110479  0.87354815  0.64303030     0.93500
O1025       O  0.47762281  0.78229820  0.58306090    -0.81900
C1026       C  0.45629566  0.76689224  0.55488996     0.93500
O1027       O  0.49208211  0.89935771  0.79282870    -0.81900
Mg1028     Mg  0.36115216  0.85912479  0.69699640     1.58200
O1029       O  0.03362976  0.85847921  0.62009210    -0.80300
O1030       O  0.27589885  0.77533440  0.66288897    -0.82000
C1031       C  0.31923705  0.89426474  0.85893803     0.03100
C1032       C  0.32137491  0.93043714  0.85948343     0.03000
C1033       C  0.34767246  0.95959227  0.83550273    -0.17500
C1034       C  0.37008651  0.95303846  0.80965642     0.03100
C1035       C  0.36624382  0.91632235  0.80822461     0.03000
C1036       C  0.34142465  0.88779231  0.83322362    -0.17500
H1037       H  0.33887296  0.85972892  0.83224211     0.05100
H1038       H  0.34966691  0.98739670  0.83601414     0.05100
C1039       C  0.02136953  0.77762511  0.47542670     0.03100
C1040       C  0.01798181  0.74099146  0.47448047     0.03000
C1041       C  0.49113710  0.71169438  0.49807846    -0.17500
C1042       C  0.46817088  0.71798961  0.52326673     0.03100
C1043       C  0.47247560  0.75484474  0.52473114     0.03000
C1044       C  0.49863485  0.78393902  0.50070574    -0.17500
H1045       H  0.50105464  0.81194172  0.50146512     0.05100
H1046       H  0.48864247  0.68366202  0.49731807     0.05100
C1047       C  0.25427089  0.77796160  0.47561737     0.03100
C1048       C  0.21688448  0.74500920  0.47759459     0.03000
C1049       C  0.21155808  0.71468890  0.50071848    -0.17500
C1050       C  0.24159462  0.71613108  0.52234926     0.03100
C1051       C  0.27828938  0.75009643  0.52217651     0.03000
C1052       C  0.28399465  0.77994591  0.49812016    -0.17500
H1053       H  0.31206598  0.80590065  0.49758078     0.05100
H1054       H  0.18348251  0.68871136  0.50108801     0.05100
C1055       C  0.25136320  0.96897085  0.47704112     0.03100
C1056       C  0.21647535  0.96911578  0.47713300     0.03000
C1057       C  0.21197245  0.49339968  0.50228581    -0.17500
C1058       C  0.24120060  0.51821424  0.52682227     0.03100
C1059       C  0.27609712  0.51813568  0.52671946     0.03000
C1060       C  0.28067635  0.49372326  0.50185443    -0.17500
H1061       H  0.30783207  0.49456558  0.50130660     0.05100
H1062       H  0.18506238  0.49308362  0.50264757     0.05100
C1063       C  0.03992982  0.51006279  0.99503539     0.03100
C1064       C  0.01186378  0.97615031  0.01204320     0.03100
C1065       C  0.47445071  0.96924633  0.01557115     0.03100
C1066       C  0.46565923  0.49672936  0.00297075     0.03100
C1067       C  0.99373512  0.53068546  0.98602594     0.03100
C1068       C  0.03117257  0.53763514  0.98261173     0.03100
C1069       C  0.35273742  0.64728924  0.33614553     0.03100
C1070       C  0.31262360  0.62471195  0.33408830     0.03100
C1071       C  0.29078675  0.64272896  0.33450289     0.03100
C1072       C  0.30910016  0.68307098  0.33208186     0.03100
C1073       C  0.34924856  0.70564995  0.33388493     0.03100
C1074       C  0.37103516  0.68759213  0.33384773     0.03100
C1075       C  0.19637776  0.82550527  0.67748131     0.03100
C1076       C  0.20398230  0.86341524  0.68088940     0.03100
C1077       C  0.17633451  0.87245660  0.66950064     0.03100
C1078       C  0.14159593  0.84423203  0.65362496     0.03100
C1079       C  0.13409753  0.80641936  0.65004556     0.03100
C1080       C  0.16163495  0.79724783  0.66154036     0.03100
C1081       C  0.11353586  0.85434677  0.64333493    -0.12500
C1082       C  0.09100497  0.86504020  0.63995499    -0.14000
C1083       C  0.24593099  0.80385792  0.69286741    -0.12500
C1084       C  0.22396209  0.81511408  0.68863770    -0.14000
C1085       C  0.26404655  0.92870808  0.69598681    -0.12500
C1086       C  0.24051812  0.89504478  0.69299567    -0.14000
C1087       C  0.09737494  0.77495169  0.63835026    -0.12500
C1088       C  0.07314819  0.74151680  0.63605774    -0.14000
C1089       C  0.15362910  0.75829940  0.65611619    -0.12500
C1090       C  0.14258439  0.72521741  0.64873345    -0.14000
C1091       C  0.19288927  0.94355835  0.68323809    -0.12500
C1092       C  0.18373132  0.91104214  0.67557395    -0.14000
C1093       C  0.47308812  0.58099690  0.97077101    -0.12500
C1094       C  0.48385479  0.55856509  0.97452922    -0.14000
C1095       C  0.03279204  0.92616528  0.02783533    -0.12500
C1096       C  0.02181050  0.94838703  0.02375857    -0.14000
C1097       C  0.09623734  0.59765884  0.96799109    -0.12500
C1098       C  0.06275437  0.57390409  0.97028314    -0.14000
C1099       C  0.40962466  0.90899620  0.03106215    -0.12500
C1100       C  0.44296249  0.93313729  0.02840024    -0.14000
C1101       C  0.42740854  0.98976745  0.00865738    -0.12500
C1102       C  0.39499977  0.98026246  0.01623571    -0.14000
C1103       C  0.07822142  0.51703579  0.98942583    -0.12500
C1104       C  0.11075579  0.52673577  0.98213067    -0.14000
C1105       C  0.29481369  0.58363955  0.32712234    -0.12500
C1106       C  0.28660839  0.55129523  0.31890159    -0.14000
C1107       C  0.36726969  0.74687936  0.33987331    -0.12500
C1108       C  0.37592490  0.77947533  0.34745255    -0.14000
C1109       C  0.25027681  0.61976213  0.34209847    -0.12500
C1110       C  0.21828454  0.59557733  0.35077064    -0.14000
C1111       C  0.44353648  0.73394314  0.31728446    -0.12500
C1112       C  0.41151546  0.71035157  0.32633655    -0.14000
C1113       C  0.26328624  0.70970868  0.31747718    -0.12500
C1114       C  0.28658710  0.70065152  0.32431076    -0.14000
C1115       C  0.39844012  0.62026359  0.34977964    -0.12500
C1116       C  0.37529656  0.62966577  0.34349873    -0.14000
O1117       O  0.63800871  0.16700238  0.35596579    -0.87500
C1118       C  0.61232665  0.25174628  0.36264702     0.88500
Mg1119     Mg  0.64045175  0.13995603  0.30457250     1.58100
O1120       O  0.54353562  0.15865376  0.39277815    -0.87300
O1121       O  0.61660632  0.15304156  0.41280272    -0.74600
C1122       C  0.47731924  0.09550184  0.21574593     0.93500
O1123       O  0.65373916  0.22961866  0.29509052    -0.74400
O1124       O  0.51071383  0.10331011  0.20522560    -0.81900
Mg1125     Mg  0.66977197  0.22905264  0.35689653     1.58000
C1126       C  0.93278524  0.11887699  0.35083802     0.93500
O1127       O  0.69260784  0.23498559  0.41621063    -0.80200
H1128       H  0.52716179  0.11239576  0.42472067    -0.05500
C1129       C  0.52990223  0.18228744  0.28322769     0.88400
O1130       O  0.58139705  0.08695828  0.31467661    -0.74700
O1131       O  0.61983048  0.22849306  0.37669570    -0.87500
O1132       O  0.95846243  0.13931748  0.37462166    -0.80300
C1133       C  0.53540695  0.22911512  0.44492096     0.93600
C1134       C  0.68558381  0.23687153  0.45042066     0.93400
Mg1135     Mg  0.49122756  0.10069528  0.30940802     1.58000
O1136       O  0.96969967  0.09649709  0.24993755    -0.80200
O1137       O  0.50722479  0.09939711  0.37143567    -0.74400
O1138       O  0.56715206  0.22991288  0.45043091    -0.80300
O1139       O  0.72219232  0.22812514  0.34086400    -0.82000
O1140       O  0.59170309  0.09868241  0.21716532    -0.80300
C1141       C  0.52601461  0.12332652  0.39757635     0.87900
O1142       O  0.54077074  0.10100995  0.29010692    -0.87500
O1143       O  0.52354520  0.16252451  0.31136090    -0.87600
O1144       O  0.54629031  0.17802295  0.25508767    -0.74600
Mg1145     Mg  0.59446555  0.19392789  0.42659736     1.58000
O1146       O  0.51505511  0.21414282  0.41599250    -0.82000
H1147       H  0.64120867  0.12696544  0.38560403    -0.05700
O1148       O  0.61779092  0.17008233  0.27453253    -0.87300
H1149       H  0.63448384  0.21576837  0.24172263    -0.05500
H1150       H  0.52420679  0.04911030  0.31110983    -0.05700
C1151       C  0.63544366  0.20529079  0.26916460     0.87800
C1152       C  0.63262970  0.14824148  0.38465114     0.88400
C1153       C  0.54770063  0.07764008  0.30482821     0.88500
H1154       H  0.52196965  0.20406636  0.28282183    -0.05700
O1155       O  0.57833167  0.24209802  0.35351715    -0.74700
Mg1156     Mg  0.56703211  0.13618868  0.24076625     1.58000
H1157       H  0.63546774  0.28053594  0.35659409    -0.05700
C1158       C  0.72827024  0.20976452  0.31588953     0.93500
O1159       O  0.64319813  0.11175240  0.25138547    -0.81900
C1160       C  0.62234095  0.09749784  0.22250969     0.93500
O1161       O  0.65208102  0.22882859  0.46125429    -0.81900
Mg1162     Mg  0.51972669  0.18789681  0.36304662     1.58200
O1163       O  0.70244709  0.18697360  0.29322609    -0.80300
O1164       O  0.93870660  0.10164026  0.32466128    -0.82000
C1165       C  0.63846517  0.08556066  0.19187506     0.03100
C1166       C  0.63803846  0.05030277  0.19139761     0.03000
C1167       C  0.66119841  0.04526430  0.16546860    -0.17500
C1168       C  0.68503738  0.07451834  0.14040736     0.03100
C1169       C  0.68503923  0.10962970  0.14066379     0.03000
C1170       C  0.66167346  0.11445592  0.16628635    -0.17500
H1171       H  0.66231013  0.14162747  0.16696696     0.05100
H1172       H  0.66123868  0.01844353  0.16526228     0.05100
C1173       C  0.94650503  0.08759203  0.18842241     0.03100
C1174       C  0.90917866  0.05466604  0.19134892     0.03000
C1175       C  0.87915601  0.05343026  0.17052216    -0.17500
C1176       C  0.88449580  0.08283501  0.14610617     0.03100
C1177       C  0.92172348  0.11556117  0.14262191     0.03000
C1178       C  0.95208240  0.11754362  0.16405623    -0.17500
H1179       H  0.98039875  0.14299335  0.16202998     0.05100
H1180       H  0.85077894  0.02793953  0.17232121     0.05100
O1181       O  0.64515733  0.46090193  0.34404483    -0.87500
C1182       C  0.56263789  0.41151110  0.42162814     0.88500
Mg1183     Mg  0.64312274  0.49408886  0.29784358     1.58100
O1184       O  0.57704872  0.35397950  0.35759836    -0.87300
O1185       O  0.66247186  0.42008081  0.36040095    -0.74600
C1186       C  0.97499059  0.37750816  0.21833643     0.93500
O1187       O  0.58796195  0.48727831  0.36959092    -0.74400
O1188       O  0.49848970  0.41389364  0.21822451    -0.81900
Mg1189     Mg  0.63480655  0.47813459  0.39678592     1.58000
C1190       C  0.97813572  0.26897674  0.30954904     0.93500
O1191       O  0.68148143  0.47305904  0.42761536    -0.80200
H1192       H  0.61008463  0.33675402  0.33302039    -0.05500
C1193       C  0.49376974  0.37926711  0.32550472     0.88400
O1194       O  0.62990116  0.44486429  0.25714892    -0.74700
O1195       O  0.59380944  0.41919354  0.40817041    -0.87500
O1196       O  0.00449102  0.28221502  0.33359563    -0.80300
C1197       C  0.53906797  0.30537550  0.44456137     0.93600
C1198       C  0.68602242  0.45029271  0.44853337     0.93400
Mg1199     Mg  0.52660477  0.35025705  0.27016449     1.58000
O1200       O  0.97964436  0.35501647  0.23955336    -0.80200
O1201       O  0.57367505  0.34136330  0.29732884    -0.74400
O1202       O  0.57286466  0.33522949  0.44695602    -0.80300
O1203       O  0.68178384  0.03968279  0.38515656    -0.82000
O1204       O  0.58755581  0.49285177  0.22040836    -0.80300
C1205       C  0.58779088  0.34368202  0.32976520     0.87900
O1206       O  0.56735874  0.40908648  0.25875975    -0.87500
O1207       O  0.51641427  0.36752029  0.32296999    -0.87600
O1208       O  0.49860495  0.40795567  0.30674849    -0.74600
Mg1209     Mg  0.61652358  0.38079924  0.40299116     1.58000
O1210       O  0.51765888  0.29903283  0.41653548    -0.82000
H1211       H  0.69190628  0.46301124  0.32313195    -0.05700
O1212       O  0.58432082  0.47440258  0.30937375    -0.87300
H1213       H  0.55163873  0.49206393  0.33394147    -0.05500
H1214       H  0.59909889  0.39783013  0.22413544    -0.05700
C1215       C  0.57379675  0.48494636  0.33718491     0.87800
C1216       C  0.66759072  0.44887448  0.34161691     0.88400
C1217       C  0.59849799  0.41663136  0.24534928     0.88500
H1218       H  0.46952822  0.36497832  0.34405804    -0.05700
O1219       O  0.53128002  0.38309410  0.40993585    -0.74700
Mg1220     Mg  0.54439737  0.44726377  0.26411855     1.58000
H1221       H  0.56196360  0.43025017  0.44287193    -0.05700
C1222       C  0.68384911  0.05989097  0.35742744     0.93500
O1223       O  0.64355988  0.02868987  0.24972626    -0.81900
C1224       C  0.62150934  0.52245681  0.22224436     0.93500
O1225       O  0.66233899  0.41396106  0.44861300    -0.81900
Mg1226     Mg  0.51837726  0.33410614  0.36889712     1.58200
O1227       O  0.65816629  0.04679604  0.33263628    -0.80300
O1228       O  0.97974776  0.28885100  0.28174699    -0.82000
O1229       O  0.81490681  0.35101527  0.34326559    -0.87500
C1230       C  0.84852509  0.43455920  0.42061882     0.88500
Mg1231     Mg  0.84896842  0.35330073  0.29602303     1.58100
O1232       O  0.77382910  0.41684880  0.35842299    -0.87300
O1233       O  0.75629579  0.33179975  0.36014708    -0.74600
C1234       C  0.89747534  0.02191884  0.21762643     0.93500
O1235       O  0.89947579  0.41141830  0.36617804    -0.74400
O1236       O  0.91136376  0.49960524  0.21620310    -0.81900
Mg1237     Mg  0.84448519  0.36364558  0.39525653     1.58000
C1238       C  0.78683497  0.01641949  0.31182083     0.93500
O1239       O  0.79475050  0.31712963  0.42842876    -0.80200
H1240       H  0.72228373  0.38280805  0.33522409    -0.05500
C1241       C  0.88233040  0.50228995  0.32407628     0.88400
O1242       O  0.81119228  0.36455247  0.25660610    -0.74700
O1243       O  0.82495750  0.40274924  0.40739688    -0.87500
O1244       O  0.77446519  0.99090995  0.33666713    -0.80300
C1245       C  0.76263494  0.45279804  0.44586298     0.93600
C1246       C  0.76596683  0.30970155  0.44853774     0.93400
Mg1247     Mg  0.81824106  0.46716587  0.27032077     1.58000
O1248       O  0.86899944  0.01438089  0.23832151    -0.80200
O1249       O  0.76261386  0.41944243  0.29868015    -0.74400
O1250       O  0.75901321  0.41934010  0.44750238    -0.80300
O1251       O  0.85931856  0.31737322  0.38296970    -0.82000
O1252       O  0.90224013  0.40800765  0.21684938    -0.80300
C1253       C  0.75169009  0.40551200  0.33126223     0.87900
O1254       O  0.83703552  0.42722388  0.25750531    -0.87500
O1255       O  0.84751584  0.47915524  0.32239670    -0.87600
O1256       O  0.90576535  0.49778704  0.30434447    -0.74600
Mg1257     Mg  0.76259053  0.37713350  0.40319886     1.58000
O1258       O  0.77866976  0.47521410  0.41867490    -0.82000
H1259       H  0.77007131  0.30312668  0.32243226    -0.05700
O1260       O  0.88831257  0.41301075  0.30621237    -0.87300
H1261       H  0.93957536  0.44804579  0.32948789    -0.05500
H1262       H  0.79252044  0.39298535  0.22449553    -0.05700
C1263       C  0.91032023  0.42501637  0.33347684     0.87800
C1264       C  0.78023282  0.32752439  0.34115403     0.88400
C1265       C  0.81314921  0.39515123  0.24493983     0.88500
H1266       H  0.89305032  0.02668899  0.34284489    -0.05700
O1267       O  0.85062638  0.46526711  0.40923262    -0.74700
Mg1268     Mg  0.89933187  0.45223084  0.26102239     1.58000
H1269       H  0.86882531  0.43641209  0.44129126    -0.05700
C1270       C  0.87596220  0.31447514  0.35436611     0.93500
O1271       O  0.88203807  0.35288861  0.24738235    -0.81900
C1272       C  0.89791786  0.37414611  0.21952106     0.93500
O1273       O  0.75093346  0.33091857  0.44820527    -0.81900
Mg1274     Mg  0.81295747  0.47645156  0.36979890     1.58200
O1275       O  0.88803991  0.33974926  0.32931730    -0.80300
O1276       O  0.80377297  0.01375402  0.28330443    -0.82000
C1277       C  0.90893627  0.35612231  0.18953677     0.03100
C1278       C  0.94484558  0.35806155  0.18941255     0.03000
C1279       C  0.95049721  0.33420568  0.16474370    -0.17500
C1280       C  0.92152589  0.30753734  0.14095628     0.03100
C1281       C  0.88494946  0.30347159  0.14243017     0.03000
C1282       C  0.87925433  0.32795610  0.16664313    -0.17500
H1283       H  0.85139239  0.32556654  0.16715252     0.05100
H1284       H  0.97837783  0.33658415  0.16394721     0.05100
O1285       O  0.69021601  0.48415434  0.98612241    -0.87500
C1286       C  0.77641385  0.02257035  0.91094016     0.88500
Mg1287     Mg  0.68776634  0.51662025  0.03333788     1.58100
O1288       O  0.75857032  0.44802041  0.97269241    -0.87300
O1289       O  0.67313326  0.42642966  0.96651111    -0.74600
C1290       C  0.85274461  0.07165394  0.11897020     0.93500
O1291       O  0.74836358  0.07079316  0.96591470    -0.74400
O1292       O  0.82948647  0.08428304  0.12036038    -0.81900
Mg1293     Mg  0.70407411  0.51510165  0.93444182     1.58000
C1294       C  0.85715671  0.47062189  0.02574054     0.93500
O1295       O  0.66028128  0.46532338  0.90063712    -0.80200
H1296       H  0.72462985  0.39593785  0.99471021    -0.05500
C1297       C  0.83811900  0.05831813  0.01210819     0.88400
O1298       O  0.69832649  0.47995360  0.07456060    -0.74700
O1299       O  0.74505789  0.49820489  0.92379516    -0.87500
O1300       O  0.83051618  0.45392667  0.00224909    -0.80300
C1301       C  0.80221973  0.44108277  0.88861659     0.93600
C1302       C  0.65209782  0.43649405  0.88017632     0.93400
Mg1303     Mg  0.80240666  0.99300038  0.06423459     1.58000
O1304       O  0.84661914  0.04390590  0.09767714    -0.80200
O1305       O  0.75803714  0.43683534  0.03300123    -0.74400
O1306       O  0.76805683  0.43537118  0.88436067    -0.80300
O1307       O  0.65505695  0.02515670  0.94280334    -0.82000
O1308       O  0.73775032  0.07015192  0.11443853    -0.80300
C1309       C  0.74631799  0.42574225  0.99962309     0.87900
O1310       O  0.76079034  0.00884393  0.07489307    -0.87500
O1311       O  0.81538727  0.02326950  0.01226904    -0.87600
O1312       O  0.83236476  0.08090513  0.03206434    -0.74600
Mg1313     Mg  0.72097244  0.43567721  0.92570307     1.58000
O1314       O  0.82230637  0.45752731  0.91735875    -0.82000
H1315       H  0.64205900  0.43760985  0.00348057    -0.05700
O1316       O  0.74703073  0.05878123  0.02603395    -0.87300
H1317       H  0.78128857  0.11114294  0.00477879    -0.05500
H1318       H  0.72829336  0.46455869  0.10847305    -0.05700
C1319       C  0.75959992  0.08143387  0.99943949     0.87800
C1320       C  0.66734685  0.44913386  0.98622349     0.88400
C1321       C  0.72938124  0.48407097  0.08733210     0.88500
H1322       H  0.86335751  0.06996675  0.99470227    -0.05700
O1323       O  0.80745400  0.02658086  0.92360149    -0.74700
Mg1324     Mg  0.78428988  0.07104703  0.07292167     1.58000
H1325       H  0.77748557  0.04181848  0.88950713    -0.05700
C1326       C  0.64888841  0.03696491  0.97303093     0.93500
O1327       O  0.68355867  0.04898506  0.08169061    -0.81900
C1328       C  0.70376951  0.06467109  0.11054030     0.93500
O1329       O  0.67417470  0.42233080  0.87874299    -0.81900
Mg1330     Mg  0.81789787  0.99028894  0.96536559     1.58200
O1331       O  0.67510597  0.05324716  0.99700783    -0.80300
O1332       O  0.85169383  0.48346393  0.05566186    -0.82000
O1333       O  0.69642684  0.20167927  0.02053092    -0.87500
C1334       C  0.79747346  0.20676386  0.02621669     0.88500
Mg1335     Mg  0.67012346  0.20417095  0.96869431     1.58100
O1336       O  0.78207311  0.28063875  0.05825522    -0.87300
O1337       O  0.69984673  0.21358283  0.07957983    -0.74600
C1338       C  0.79745927  0.36369325  0.88658509     0.93500
O1339       O  0.73526075  0.17878131  0.95876576    -0.74400
O1340       O  0.76864834  0.33162895  0.87585741    -0.81900
Mg1341     Mg  0.71374009  0.15944846  0.01977334     1.56200
C1342       C  0.86909184  0.38543777  0.02608478     0.93500
O1343       O  0.69454647  0.13504574  0.07956626    -0.80200
H1344       H  0.75746391  0.30128728  0.09207520    -0.05500
C1345       C  0.82419731  0.30083853  0.94941414     0.88400
O1346       O  0.68062352  0.26424118  0.98211523    -0.74700
O1347       O  0.76826980  0.20202939  0.04201576    -0.87500
O1348       O  0.85004292  0.35855721  0.04831279    -0.80300
C1349       C  0.85642077  0.28377394  0.11239526     0.93600
C1350       C  0.70668573  0.14079141  0.11327109     0.93400
Mg1351     Mg  0.79160871  0.34516886  0.97981653     1.58000
O1352       O  0.81003570  0.36949790  0.92011567    -0.80200
O1353       O  0.77085180  0.32624661  0.04091236    -0.74400
O1354       O  0.82334785  0.25426898  0.11875291    -0.80300
O1355       O  0.65240235  0.11542008  0.00164006    -0.82000
O1356       O  0.68155157  0.25137884  0.88132564    -0.80300
C1357       C  0.76968247  0.30245600  0.06496634     0.87900
O1358       O  0.73712126  0.30215347  0.95785285    -0.87500
O1359       O  0.80928457  0.30321253  0.97833106    -0.87600
O1360       O  0.80535670  0.29111033  0.91926795    -0.74600
Mg1361     Mg  0.76188816  0.23017093  0.09200554     1.58000
O1362       O  0.86460530  0.30136626  0.08179076    -0.82000
H1363       H  0.65193686  0.19756327  0.04868889    -0.05700
O1364       O  0.72340896  0.22383468  0.94065854    -0.87300
H1365       H  0.74926601  0.20386580  0.90766284    -0.05500
H1366       H  0.70580446  0.32241169  0.98051532    -0.05700
C1367       C  0.73646874  0.20245553  0.93449211     0.87800
C1368       C  0.68130073  0.20404517  0.04927910     0.88400
C1369       C  0.70772439  0.29747346  0.97313609     0.88500
H1370       H  0.85358015  0.30739637  0.94973533    -0.05700
O1371       O  0.82422432  0.23992018  0.01655799    -0.74700
Mg1372     Mg  0.74313688  0.27448630  0.90740789     1.58000
H1373       H  0.79939757  0.18184320  0.01878864    -0.05700
C1374       C  0.63683463  0.11993344  0.97304466     0.93500
O1375       O  0.64035308  0.20260525  0.91665612    -0.81900
C1376       C  0.64849504  0.22155927  0.88682535     0.93500
O1377       O  0.73551910  0.17286641  0.12412760    -0.81900
Mg1378     Mg  0.83532654  0.30015573  0.02997770     1.58200
O1379       O  0.65670233  0.14631088  0.95068398    -0.80300
O1380       O  0.85289233  0.38960460  0.99778670    -0.82000
O1381       O  0.00472949  0.31014392  0.97883761    -0.87500
C1382       C  0.59154809  0.28983123  0.97355360     0.88500
Mg1383     Mg  0.97758925  0.31059994  0.03049696     1.58100
O1384       O  0.99938392  0.22108768  0.94102720    -0.87300
O1385       O  0.99205118  0.29242166  0.92090221    -0.74600
C1386       C  0.93101795  0.14586051  0.11440761     0.93500
O1387       O  0.56586216  0.32640785  0.04043440    -0.74400
O1388       O  0.93705341  0.17892616  0.12459632    -0.81900
Mg1389     Mg  0.56614377  0.34539301  0.97897460     1.58000
C1390       C  0.96458144  0.11089980  0.97412377     0.93500
O1391       O  0.57183728  0.36862571  0.91881514    -0.80200
H1392       H  0.95415589  0.20433810  0.90732097    -0.05500
C1393       C  0.51948995  0.20094146  0.04948077     0.88400
O1394       O  0.92437010  0.25197148  0.01717761    -0.74700
O1395       O  0.56897652  0.29750116  0.95810615    -0.87500
O1396       O  0.47986813  0.13863087  0.95171163    -0.80300
C1397       C  0.57195535  0.21670964  0.88842733     0.93600
C1398       C  0.57474406  0.36080763  0.88484144     0.93400
Mg1399     Mg  0.94005757  0.16189637  0.02040070     1.58000
O1400       O  0.93456593  0.13839364  0.08049142    -0.80200
O1401       O  0.94006208  0.18073746  0.95902395    -0.74400
O1402       O  0.57168423  0.24795779  0.88427482    -0.80300
O1403       O  0.56037255  0.39580287  0.99693406    -0.82000
O1404       O  0.93365441  0.25980683  0.11511794    -0.80300
C1405       C  0.96440889  0.20225906  0.93455005     0.87900
O1406       O  0.93689069  0.20977407  0.04128912    -0.87500
O1407       O  0.50142929  0.19727956  0.02062948    -0.87600
O1408       O  0.51347297  0.21472241  0.07871767    -0.74600
Mg1409     Mg  0.53397464  0.27167893  0.90809101     1.58000
O1410       O  0.55685489  0.19501664  0.91627592    -0.82000
H1411       H  0.96517986  0.31502195  0.95006382    -0.05700
O1412       O  0.50651710  0.28627592  0.05863232    -0.87300
H1413       H  0.55184084  0.30282073  0.09215950    -0.05500
H1414       H  0.88627099  0.19447453  0.01784972    -0.05700
C1415       C  0.54153284  0.30494468  0.06497329     0.87800
C1416       C  0.98645291  0.30647495  0.95015084     0.88400
C1417       C  0.91448839  0.21763446  0.02574916     0.88500
H1418       H  0.54086032  0.19252684  0.04976537    -0.05700
O1419       O  0.58180793  0.25558853  0.98229537    -0.74700
Mg1420     Mg  0.97147712  0.23548789  0.09148542     1.58000
H1421       H  0.61976061  0.31310185  0.98131491    -0.05700
C1422       C  0.54175984  0.39656011  0.02488006     0.93500
O1423       O  0.94961474  0.31296591  0.08294369    -0.81900
C1424       C  0.93395915  0.29139209  0.11074566     0.93500
O1425       O  0.56802889  0.32756076  0.87466052    -0.81900
Mg1426     Mg  0.52871460  0.19700762  0.96889784     1.58200
O1427       O  0.02668942  0.36894615  0.04744055    -0.80300
O1428       O  0.94609580  0.11168130  0.00218018    -0.82000
O1429       O  0.64704906  0.02122268  0.67843410    -0.87500
C1430       C  0.68502519  0.10831855  0.75358876     0.88500
Mg1431     Mg  0.68073712  0.01936967  0.63213637     1.58100
O1432       O  0.60920929  0.08881787  0.69268613    -0.87300
O1433       O  0.58962264  0.00394675  0.69816225    -0.74600
C1434       C  0.73023548  0.18315097  0.54770628     0.93500
O1435       O  0.73313944  0.08051269  0.70058925    -0.74400
O1436       O  0.74556411  0.16215049  0.54731057    -0.81900
Mg1437     Mg  0.67746505  0.03528532  0.73058014     1.58000
C1438       C  0.63025875  0.18638125  0.63890155     0.93500
O1439       O  0.62735912  0.48987934  0.76245215    -0.80200
H1440       H  0.55711329  0.05334984  0.67119908    -0.05500
C1441       C  0.71755217  0.16959138  0.65331760     0.88400
O1442       O  0.64378618  0.02818826  0.58971338    -0.74700
O1443       O  0.66073027  0.07651325  0.74097871    -0.87500
O1444       O  0.61401650  0.16013856  0.66267858    -0.80300
C1445       C  0.60492921  0.13400209  0.77725340     0.93600
C1446       C  0.60063296  0.48379820  0.78465088     0.93400
Mg1447     Mg  0.65174779  0.13070372  0.60077290     1.58000
O1448       O  0.70081537  0.17419603  0.56705796    -0.80200
O1449       O  0.59682976  0.08616090  0.63237969    -0.74400
O1450       O  0.59994241  0.10000164  0.78146526    -0.80300
O1451       O  0.68828143  0.48660952  0.72234474    -0.82000
O1452       O  0.73475701  0.07044989  0.55238650    -0.80300
C1453       C  0.58653464  0.07539722  0.66594752     0.87900
O1454       O  0.67013925  0.09060973  0.59093579    -0.87500
O1455       O  0.68286506  0.14595051  0.65272136    -0.87600
O1456       O  0.74079759  0.16423671  0.63436706    -0.74600
Mg1457     Mg  0.59886142  0.05215963  0.73964196     1.58000
O1458       O  0.61931432  0.15341505  0.74792473    -0.82000
H1459       H  0.60048016  0.97302985  0.66033082    -0.05700
O1460       O  0.72128142  0.07920729  0.64038738    -0.87300
H1461       H  0.77325267  0.11416539  0.66240018    -0.05500
H1462       H  0.62743332  0.05729926  0.55570379    -0.05700
C1463       C  0.74374918  0.09206411  0.66728211     0.87800
C1464       C  0.61211380  0.99833186  0.67803526     0.88400
C1465       C  0.64671348  0.05893866  0.57742525     0.88500
H1466       H  0.72833161  0.19514184  0.67054518    -0.05700
O1467       O  0.68821262  0.13911889  0.74105876    -0.74700
Mg1468     Mg  0.73282508  0.11637059  0.59383239     1.58000
H1469       H  0.70483800  0.11000158  0.77474681    -0.05700
C1470       C  0.70157299  0.48136890  0.69271954     0.93500
O1471       O  0.71490120  0.01645648  0.58497628    -0.81900
C1472       C  0.73074385  0.03691082  0.55650589     0.93500
O1473       O  0.58787851  0.00703670  0.78698044    -0.81900
Mg1474     Mg  0.65090688  0.14861464  0.69967220     1.58200
O1475       O  0.71773462  0.50804285  0.66939881    -0.80300
O1476       O  0.64052935  0.17945397  0.60816446    -0.82000
C1477       C  0.62001227  0.20365382  0.85635099     0.03100
C1478       C  0.58399285  0.20104628  0.85761708     0.03000
C1479       C  0.55493697  0.17625756  0.83267281    -0.17500
C1480       C  0.56016297  0.15279289  0.80732558     0.03100
C1481       C  0.59556584  0.15375364  0.80688337     0.03000
C1482       C  0.62530542  0.18000575  0.83075387    -0.17500
H1483       H  0.65259785  0.18116252  0.83020524     0.05100
H1484       H  0.52737022  0.17453695  0.83359306     0.05100
C1485       C  0.61894716  0.42534783  0.85454059     0.03100
C1486       C  0.58311485  0.39057912  0.85647495     0.03000
C1487       C  0.55231301  0.38621453  0.83410311    -0.17500
C1488       C  0.55574861  0.41603708  0.81089282     0.03100
C1489       C  0.59063987  0.45183307  0.81122172     0.03000
C1490       C  0.62151766  0.45532104  0.83246666    -0.17500
H1491       H  0.64862842  0.48243673  0.83176754     0.05100
H1492       H  0.52526533  0.35909902  0.83466616     0.05100
O1493       O  0.86702018  0.02869282  0.64587575    -0.87500
C1494       C  0.87398632  0.13150021  0.64030818     0.88500
Mg1495     Mg  0.86956114  0.50217397  0.69738772     1.58100
O1496       O  0.94648688  0.11463583  0.60771926    -0.87300
O1497       O  0.87885330  0.03232498  0.58685464    -0.74600
C1498       C  0.02925021  0.13068069  0.77982249     0.93500
O1499       O  0.84524530  0.06850761  0.70829129    -0.74400
O1500       O  0.99758992  0.10165693  0.79047725    -0.81900
Mg1501     Mg  0.82588968  0.04728008  0.64709031     1.58000
C1502       C  0.55036164  0.20084023  0.64073685     0.93500
O1503       O  0.80161500  0.02831432  0.58755043    -0.80200
H1504       H  0.96594080  0.08873540  0.57404693    -0.05500
C1505       C  0.96660653  0.15691027  0.71653981     0.88400
O1506       O  0.92904455  0.01214898  0.68395989    -0.74700
O1507       O  0.86903531  0.10170425  0.62517579    -0.87500
O1508       O  0.52392221  0.18122555  0.61810433    -0.80300
C1509       C  0.94965698  0.18968781  0.55369015     0.93600
C1510       C  0.80708117  0.04025853  0.55396138     0.93400
Mg1511     Mg  0.51031446  0.12361821  0.68655197     1.58000
O1512       O  0.53466075  0.14286167  0.74628932    -0.80200
O1513       O  0.99113399  0.10221367  0.62532939    -0.74400
O1514       O  0.91980412  0.15651083  0.54792022    -0.80300
O1515       O  0.78116697  0.48582721  0.66436532    -0.82000
O1516       O  0.91770470  0.01416713  0.78446583    -0.80300
C1517       C  0.96757171  0.10139873  0.60114061     0.87900
O1518       O  0.96739781  0.06909183  0.70821851    -0.87500
O1519       O  0.96891962  0.14185368  0.68756397    -0.87600
O1520       O  0.95708021  0.13815170  0.74659887    -0.74600
Mg1521     Mg  0.89590350  0.09479712  0.57462911     1.58000
O1522       O  0.96825005  0.19808078  0.58390876    -0.82000
H1523       H  0.86237261  0.98395280  0.61705059    -0.05700
O1524       O  0.88980483  0.05586623  0.72569558    -0.87300
H1525       H  0.87048905  0.08175901  0.75954454    -0.05500
H1526       H  0.98695597  0.03713340  0.68539386    -0.05700
C1527       C  0.86878882  0.06915797  0.73240165     0.87800
C1528       C  0.86913991  0.01353915  0.61688984     0.88400
C1529       C  0.96233294  0.03933825  0.69285948     0.88500
H1530       H  0.97308279  0.18640058  0.71635901    -0.05700
O1531       O  0.90722768  0.15872134  0.64924105    -0.74700
Mg1532     Mg  0.94052822  0.07579859  0.75868730     1.58000
H1533       H  0.84930047  0.13369744  0.64757399    -0.05700
C1534       C  0.78586519  0.46964580  0.69231688     0.93500
O1535       O  0.86834562  0.47263001  0.74932697    -0.81900
C1536       C  0.88772710  0.48104916  0.77905566     0.93500
O1537       O  0.83880671  0.06904928  0.54306152    -0.81900
Mg1538     Mg  0.96662229  0.16840203  0.63593272     1.58200
O1539       O  0.81218864  0.48925261  0.71508345    -0.80300
O1540       O  0.55464576  0.18497449  0.66917088    -0.82000
O1541       O  0.97469205  0.33604323  0.68805045    -0.87500
C1542       C  0.95379740  0.42244583  0.69309992     0.88500
Mg1543     Mg  0.97509965  0.30927987  0.63595199     1.58100
O1544       O  0.88558488  0.33009813  0.72495134    -0.87300
O1545       O  0.95694703  0.32305629  0.74571254    -0.74600
C1546       C  0.80882080  0.25907468  0.55061599     0.93500
O1547       O  0.99095203  0.39749272  0.62678533    -0.74400
O1548       O  0.84241155  0.26715555  0.54038173    -0.81900
Mg1549     Mg  0.50972224  0.39767529  0.68848498     1.58000
C1550       C  0.77532533  0.29462050  0.69054823     0.93500
O1551       O  0.53288437  0.40364026  0.74871016    -0.80200
H1552       H  0.86922689  0.28477397  0.75825411    -0.05500
C1553       C  0.86401928  0.34947373  0.61653705     0.88400
O1554       O  0.91683722  0.25556173  0.64824846    -0.74700
O1555       O  0.96180972  0.40023892  0.70887183    -0.87500
O1556       O  0.80289231  0.31007949  0.71336409    -0.80300
C1557       C  0.88135890  0.40340438  0.77765657     0.93600
C1558       C  0.02529966  0.40649567  0.78270967     0.93400
Mg1559     Mg  0.82604485  0.26949368  0.64495494     1.58000
O1560       O  0.80145226  0.26200583  0.58471485    -0.80200
O1561       O  0.84551050  0.27044747  0.70639003    -0.74400
O1562       O  0.91244502  0.40305813  0.78206581    -0.80300
O1563       O  0.56015605  0.39202500  0.67118435    -0.82000
O1564       O  0.92444996  0.26578437  0.55049482    -0.80300
C1565       C  0.86698777  0.29498680  0.73110101     0.87900
O1566       O  0.87411642  0.26723714  0.62407292    -0.87500
O1567       O  0.86083237  0.33134301  0.64510087    -0.87600
O1568       O  0.87801146  0.34399020  0.58728745    -0.74600
Mg1569     Mg  0.93614768  0.36507902  0.75854271     1.58000
O1570       O  0.85953228  0.38786961  0.74973954    -0.82000
H1571       H  0.97972366  0.29636016  0.71645749    -0.05700
O1572       O  0.95026980  0.33806076  0.60811005    -0.87300
H1573       H  0.96722762  0.38355421  0.57486414    -0.05500
H1574       H  0.85975310  0.21661610  0.64699786    -0.05700
C1575       C  0.96922342  0.37316973  0.60201699     0.87800
C1576       C  0.97108447  0.31762493  0.71652343     0.88400
C1577       C  0.88249273  0.24511441  0.63943585     0.88500
H1578       H  0.85510719  0.37052910  0.61656848    -0.05700
O1579       O  0.91957738  0.41227447  0.68405481    -0.74700
Mg1580     Mg  0.89934709  0.30251417  0.57439709     1.58000
H1581       H  0.97677678  0.45073342  0.68530356    -0.05700
C1582       C  0.56110629  0.37354907  0.64303098     0.93500
O1583       O  0.97762460  0.28229970  0.58306044    -0.81900
C1584       C  0.95629735  0.26689371  0.55488950     0.93500
O1585       O  0.99208279  0.39935858  0.79282845    -0.81900
Mg1586     Mg  0.86115375  0.35912588  0.69699545     1.58200
O1587       O  0.53363165  0.35848089  0.62009245    -0.80300
O1588       O  0.77590058  0.27533545  0.66288821    -0.82000
C1589       C  0.81923662  0.39426423  0.85893657     0.03100
C1590       C  0.82137477  0.43043695  0.85948239     0.03000
C1591       C  0.84767286  0.45959214  0.83550225    -0.17500
C1592       C  0.87008719  0.45303878  0.80965613     0.03100
C1593       C  0.86624424  0.41632242  0.80822390     0.03000
C1594       C  0.84142447  0.38779228  0.83322225    -0.17500
H1595       H  0.83887242  0.35972696  0.83224022     0.05100
H1596       H  0.84966761  0.48739815  0.83601385     0.05100
C1597       C  0.52137083  0.27762526  0.47542631     0.03100
C1598       C  0.51798270  0.24099133  0.47448023     0.03000
C1599       C  0.99113788  0.21169485  0.49807817    -0.17500
C1600       C  0.96817189  0.21799028  0.52326640     0.03100
C1601       C  0.97247714  0.25484573  0.52473081     0.03000
C1602       C  0.99863646  0.28393996  0.50070526    -0.17500
H1603       H  0.00105597  0.31194141  0.50146399     0.05100
H1604       H  0.98864262  0.18366090  0.49731753     0.05100
C1605       C  0.75427256  0.27796281  0.47561630     0.03100
C1606       C  0.71688595  0.24501080  0.47759444     0.03000
C1607       C  0.71155917  0.21469072  0.50071900    -0.17500
C1608       C  0.74159617  0.21613314  0.52234949     0.03100
C1609       C  0.77829136  0.25009820  0.52217568     0.03000
C1610       C  0.78399619  0.27994682  0.49811872    -0.17500
H1611       H  0.81207124  0.30590445  0.49757832     0.05100
H1612       H  0.68348583  0.18871578  0.50108905     0.05100
C1613       C  0.75136413  0.46897101  0.47704034     0.03100
C1614       C  0.71647583  0.46911498  0.47713247     0.03000
C1615       C  0.71197258  0.99340151  0.50228582    -0.17500
C1616       C  0.74120107  0.01821594  0.52682212     0.03100
C1617       C  0.77609681  0.01813624  0.52671979     0.03000
C1618       C  0.78067570  0.99372291  0.50185522    -0.17500
H1619       H  0.80782833  0.99456429  0.50130784     0.05100
H1620       H  0.68506313  0.99308633  0.50264736     0.05100
C1621       C  0.53992988  0.01006323  0.99503448     0.03100
C1622       C  0.51186329  0.47614952  0.01204325     0.03100
C1623       C  0.97445028  0.46924566  0.01557078     0.03100
C1624       C  0.96565923  0.99672969  0.00297095     0.03100
C1625       C  0.49373473  0.03068557  0.98602547     0.03100
C1626       C  0.53117216  0.03763525  0.98261073     0.03100
C1627       C  0.85273807  0.14728909  0.33614619     0.03100
C1628       C  0.81262423  0.12471170  0.33408931     0.03100
C1629       C  0.79078746  0.14272876  0.33450330     0.03100
C1630       C  0.80910086  0.18307076  0.33208148     0.03100
C1631       C  0.84924928  0.20564981  0.33388423     0.03100
C1632       C  0.87103582  0.18759196  0.33384736     0.03100
C1633       C  0.69637793  0.32550432  0.67748373     0.03100
C1634       C  0.70398246  0.36341427  0.68089187     0.03100
C1635       C  0.67633445  0.37245550  0.66950342     0.03100
C1636       C  0.64159572  0.34423090  0.65362801     0.03100
C1637       C  0.63409734  0.30641826  0.65004851     0.03100
C1638       C  0.66163486  0.29724679  0.66154332     0.03100
C1639       C  0.61353598  0.35434592  0.64333736    -0.12500
C1640       C  0.59100561  0.36503989  0.63995645    -0.14000
C1641       C  0.74593188  0.30385750  0.69286782    -0.12500
C1642       C  0.72396255  0.31511326  0.68863919    -0.14000
C1643       C  0.76404728  0.42870736  0.69598703    -0.12500
C1644       C  0.74051875  0.39504397  0.69299685    -0.14000
C1645       C  0.59737498  0.27495090  0.63835222    -0.12500
C1646       C  0.57314830  0.24151604  0.63605870    -0.14000
C1647       C  0.65362911  0.25829852  0.65611870    -0.12500
C1648       C  0.64258441  0.22521678  0.64873507    -0.14000
C1649       C  0.69288968  0.44355760  0.68323994    -0.12500
C1650       C  0.68373142  0.41104114  0.67557657    -0.14000
C1651       C  0.97308664  0.08099609  0.97077030    -0.12500
C1652       C  0.98385404  0.05856488  0.97452845    -0.14000
C1653       C  0.53279080  0.42616371  0.02783469    -0.12500
C1654       C  0.52180977  0.44838593  0.02375825    -0.14000
C1655       C  0.59623661  0.09765909  0.96798969    -0.12500
C1656       C  0.56275373  0.07390410  0.97028173    -0.14000
C1657       C  0.90962379  0.40899529  0.03106058    -0.12500
C1658       C  0.94296168  0.43313640  0.02839896    -0.14000
C1659       C  0.92740851  0.48976726  0.00865661    -0.12500
C1660       C  0.89499974  0.48026206  0.01623498    -0.14000
C1661       C  0.57822171  0.01703651  0.98942469    -0.12500
C1662       C  0.61075625  0.02673688  0.98212947    -0.14000
C1663       C  0.79481423  0.08363926  0.32712385    -0.12500
C1664       C  0.78660856  0.05129480  0.31890324    -0.14000
C1665       C  0.86727051  0.24687931  0.33987180    -0.12500
C1666       C  0.87592538  0.27947524  0.34745063    -0.14000
C1667       C  0.75027756  0.11976209  0.34209894    -0.12500
C1668       C  0.71828516  0.09557762  0.35077111    -0.14000
C1669       C  0.94353725  0.23394269  0.31728372    -0.12500
C1670       C  0.91151622  0.21035132  0.32633610    -0.14000
C1671       C  0.76328672  0.20970832  0.31747682    -0.12500
C1672       C  0.78658760  0.20065113  0.32431035    -0.14000
C1673       C  0.89844102  0.12026381  0.34978095    -0.12500
C1674       C  0.87529743  0.12966594  0.34349990    -0.14000
O1675       O  0.63800811  0.66700158  0.35596584    -0.87500
C1676       C  0.61232574  0.75174567  0.36264722     0.88500
Mg1677     Mg  0.64045151  0.63995574  0.30457257     1.58100
O1678       O  0.54353416  0.65865263  0.39277869    -0.87300
O1679       O  0.61660511  0.65304026  0.41280241    -0.74600
C1680       C  0.47731944  0.59550179  0.21574561     0.93500
O1681       O  0.65373835  0.72961814  0.29509111    -0.74400
O1682       O  0.51071399  0.60330978  0.20522547    -0.81900
Mg1683     Mg  0.66977103  0.72905209  0.35689679     1.58000
C1684       C  0.93278421  0.61887641  0.35083710     0.93500
O1685       O  0.69260687  0.73498475  0.41621069    -0.80200
H1686       H  0.52716001  0.61239358  0.42472244    -0.05500
C1687       C  0.52990182  0.68228657  0.28322782     0.88400
O1688       O  0.58139690  0.58695775  0.31467658    -0.74700
O1689       O  0.61982898  0.72849161  0.37669583    -0.87500
O1690       O  0.95846113  0.63931668  0.37462104    -0.80300
C1691       C  0.53540579  0.72911468  0.44492092     0.93600
C1692       C  0.68558277  0.73687051  0.45042068     0.93400
Mg1693     Mg  0.49122701  0.60069475  0.30940785     1.58000
O1694       O  0.96969965  0.59649680  0.24993720    -0.80200
O1695       O  0.50722370  0.59939632  0.37143567    -0.74400
O1696       O  0.56715075  0.72991205  0.45043092    -0.80300
O1697       O  0.72219142  0.72812502  0.34086414    -0.82000
O1698       O  0.59170309  0.59868214  0.21716524    -0.80300
C1699       C  0.52601313  0.62332558  0.39757632     0.87900
O1700       O  0.54077052  0.60100955  0.29010693    -0.87500
O1701       O  0.52354455  0.66252379  0.31136105    -0.87600
O1702       O  0.54629002  0.67802247  0.25508784    -0.74600
Mg1703     Mg  0.59446428  0.69392692  0.42659744     1.58000
O1704       O  0.51505378  0.71414225  0.41599247    -0.82000
H1705       H  0.64120853  0.62696237  0.38560380    -0.05700
O1706       O  0.61779063  0.67008166  0.27453291    -0.87300
H1707       H  0.63448344  0.71576652  0.24172654    -0.05500
H1708       H  0.52420736  0.54911072  0.31110931    -0.05700
C1709       C  0.63544305  0.70529048  0.26916441     0.87800
C1710       C  0.63262863  0.64824084  0.38465100     0.88400
C1711       C  0.54770029  0.57763948  0.30482832     0.88500
H1712       H  0.52196909  0.70406662  0.28282212    -0.05700
O1713       O  0.57833031  0.74209701  0.35351747    -0.74700
Mg1714     Mg  0.56703190  0.63618827  0.24076642     1.58000
H1715       H  0.63546415  0.78053177  0.35659512    -0.05700
C1716       C  0.72826967  0.70976472  0.31588963     0.93500
O1717       O  0.64319823  0.61175226  0.25138551    -0.81900
C1718       C  0.62234110  0.59749778  0.22250963     0.93500
O1719       O  0.65207990  0.72882745  0.46125424    -0.81900
Mg1720     Mg  0.51972553  0.68789605  0.36304664     1.58200
O1721       O  0.70244663  0.68697363  0.29322624    -0.80300
O1722       O  0.93870584  0.60163971  0.32466050    -0.82000
C1723       C  0.63846538  0.58556037  0.19187508     0.03100
C1724       C  0.63803816  0.55030245  0.19139733     0.03000
C1725       C  0.66119818  0.54526393  0.16546838    -0.17500
C1726       C  0.68503775  0.57451818  0.14040749     0.03100
C1727       C  0.68504012  0.60962960  0.14066423     0.03000
C1728       C  0.66167425  0.61445624  0.16628672    -0.17500
H1729       H  0.66231114  0.64162466  0.16696739     0.05100
H1730       H  0.66123761  0.51844290  0.16526166     0.05100
C1731       C  0.94650548  0.58759239  0.18842210     0.03100
C1732       C  0.90917907  0.55466603  0.19134788     0.03000
C1733       C  0.87915695  0.55343059  0.17052089    -0.17500
C1734       C  0.88449656  0.58283532  0.14610529     0.03100
C1735       C  0.92172434  0.61556197  0.14262189     0.03000
C1736       C  0.95208305  0.61754428  0.16405638    -0.17500
H1737       H  0.98039920  0.64299419  0.16203073     0.05100
H1738       H  0.85077704  0.52793738  0.17231998     0.05100
O1739       O  0.64515687  0.96090232  0.34404576    -0.87500
C1740       C  0.56263701  0.91151191  0.42162908     0.88500
Mg1741     Mg  0.64312282  0.99408902  0.29784408     1.58100
O1742       O  0.57704781  0.85397973  0.35759948    -0.87300
O1743       O  0.66247112  0.92008103  0.36040212    -0.74600
C1744       C  0.97499067  0.87750924  0.21833744     0.93500
O1745       O  0.58796143  0.98727940  0.36959126    -0.74400
O1746       O  0.49849023  0.91389461  0.21822513    -0.81900
Mg1747     Mg  0.63480591  0.97813521  0.39678673     1.58000
C1748       C  0.97813485  0.76897727  0.30955005     0.93500
O1749       O  0.68148063  0.97305944  0.42761615    -0.80200
H1750       H  0.61008559  0.83675339  0.33302233    -0.05500
C1751       C  0.49376931  0.87926807  0.32550572     0.88400
O1752       O  0.62990087  0.94486378  0.25715023    -0.74700
O1753       O  0.59380864  0.91919397  0.40817119    -0.87500
O1754       O  0.00448993  0.78221558  0.33359690    -0.80300
C1755       C  0.53906672  0.80537549  0.44456214     0.93600
C1756       C  0.68602165  0.95029319  0.44853421     0.93400
Mg1757     Mg  0.52660405  0.85025763  0.27016564     1.58000
O1758       O  0.97964383  0.85501749  0.23955494    -0.80200
O1759       O  0.57367425  0.84136329  0.29733020    -0.74400
O1760       O  0.57286345  0.83522945  0.44695707    -0.80300
O1761       O  0.68178401  0.53968218  0.38515596    -0.82000
O1762       O  0.58755602  0.99285242  0.22040907    -0.80300
C1763       C  0.58778955  0.84368216  0.32976648     0.87900
O1764       O  0.56735841  0.90908675  0.25876089    -0.87500
O1765       O  0.51641379  0.86752106  0.32297102    -0.87600
O1766       O  0.49860480  0.90795671  0.30674924    -0.74600
Mg1767     Mg  0.61652255  0.88079965  0.40299222     1.58000
O1768       O  0.51765765  0.79903324  0.41653635    -0.82000
H1769       H  0.69190780  0.96301276  0.32313203    -0.05700
O1770       O  0.58432047  0.97440353  0.30937444    -0.87300
H1771       H  0.55163500  0.99206619  0.33394122    -0.05500
H1772       H  0.59909822  0.89782867  0.22413656    -0.05700
C1773       C  0.57379717  0.98494741  0.33718542     0.87800
C1774       C  0.66758974  0.94887450  0.34161838     0.88400
C1775       C  0.59849756  0.91663121  0.24535078     0.88500
H1776       H  0.46952827  0.86497959  0.34405828    -0.05700
O1777       O  0.53127907  0.88309460  0.40993662    -0.74700
Mg1778     Mg  0.54439749  0.94726456  0.26411917     1.58000
H1779       H  0.56196281  0.93024955  0.44287119    -0.05700
C1780       C  0.68384883  0.55989048  0.35742714     0.93500
O1781       O  0.64355928  0.52869004  0.24972616    -0.81900
C1782       C  0.62150977  0.02245709  0.22224474     0.93500
O1783       O  0.66233801  0.91396149  0.44861423    -0.81900
Mg1784     Mg  0.51837632  0.83410668  0.36889809     1.58200
O1785       O  0.65816573  0.54679546  0.33263635    -0.80300
O1786       O  0.97974680  0.78885165  0.28174816    -0.82000
O1787       O  0.81490669  0.85101523  0.34326776    -0.87500
C1788       C  0.84852391  0.93455908  0.42062043     0.88500
Mg1789     Mg  0.84896820  0.85330063  0.29602514     1.58100
O1790       O  0.77382843  0.91684798  0.35842411    -0.87300
O1791       O  0.75629559  0.83179918  0.36014898    -0.74600
C1792       C  0.89747594  0.52191917  0.21762552     0.93500
O1793       O  0.89947556  0.91141885  0.36618003    -0.74400
O1794       O  0.91136356  0.99960518  0.21620445    -0.81900
Mg1795     Mg  0.84448491  0.86364582  0.39525869     1.58000
C1796       C  0.78683548  0.51642021  0.31181989     0.93500
O1797       O  0.79475006  0.81712980  0.42843098    -0.80200
H1798       H  0.72228381  0.88280774  0.33522477    -0.05500
C1799       C  0.88232967  0.00228988  0.32407744     0.88400
O1800       O  0.81119182  0.86455217  0.25660800    -0.74700
O1801       O  0.82495668  0.90274900  0.40739884    -0.87500
O1802       O  0.77446633  0.49091118  0.33666679    -0.80300
C1803       C  0.76263358  0.95279749  0.44586371     0.93600
C1804       C  0.76596584  0.80970111  0.44853942     0.93400
Mg1805     Mg  0.81824054  0.96716535  0.27032177     1.58000
O1806       O  0.86900011  0.51438136  0.23832074    -0.80200
O1807       O  0.76261348  0.91944169  0.29868114    -0.74400
O1808       O  0.75901198  0.91933958  0.44750343    -0.80300
O1809       O  0.85931873  0.81737365  0.38297194    -0.82000
O1810       O  0.90224008  0.90800733  0.21685121    -0.80300
C1811       C  0.75168943  0.90551100  0.33126318     0.87900
O1812       O  0.83703495  0.92722337  0.25750632    -0.87500
O1813       O  0.84751509  0.97915453  0.32239765    -0.87600
O1814       O  0.90576479  0.99778703  0.30434570    -0.74600
Mg1815     Mg  0.76258976  0.87713293  0.40320024     1.58000
O1816       O  0.77866846  0.97521349  0.41867556    -0.82000
H1817       H  0.77007176  0.80312635  0.32243515    -0.05700
O1818       O  0.88831264  0.91301108  0.30621431    -0.87300
H1819       H  0.93957693  0.94804828  0.32948991    -0.05500
H1820       H  0.79251726  0.89298419  0.22449541    -0.05700
C1821       C  0.91031974  0.92501666  0.33347898     0.87800
C1822       C  0.78023280  0.82752393  0.34115609     0.88400
C1823       C  0.81314901  0.89515069  0.24494168     0.88500
H1824       H  0.89305203  0.52669032  0.34284449    -0.05700
O1825       O  0.85062540  0.96526689  0.40923405    -0.74700
Mg1826     Mg  0.89933167  0.95223077  0.26102380     1.58000
H1827       H  0.86882522  0.93641225  0.44129399    -0.05700
C1828       C  0.87596236  0.81447556  0.35436835     0.93500
O1829       O  0.88203764  0.85288815  0.24738407    -0.81900
C1830       C  0.89791759  0.87414567  0.21952279     0.93500
O1831       O  0.75093204  0.83091773  0.44820664    -0.81900
Mg1832     Mg  0.81295651  0.97645094  0.36979986     1.58200
O1833       O  0.88803992  0.83974973  0.32931958    -0.80300
O1834       O  0.80377355  0.51375474  0.28330355    -0.82000
C1835       C  0.90893580  0.85612176  0.18953839     0.03100
C1836       C  0.94484611  0.85806257  0.18941331     0.03000
C1837       C  0.95049801  0.83420740  0.16474427    -0.17500
C1838       C  0.92152716  0.80753841  0.14095724     0.03100
C1839       C  0.88494986  0.80347143  0.14243170     0.03000
C1840       C  0.87925435  0.82795496  0.16664520    -0.17500
H1841       H  0.85138909  0.82556445  0.16715492     0.05100
H1842       H  0.97838209  0.83658738  0.16394719     0.05100
O1843       O  0.69021568  0.98415561  0.98612160    -0.87500
C1844       C  0.77641285  0.52256925  0.91093974     0.88500
Mg1845     Mg  0.68776611  0.01662136  0.03333718     1.58100
O1846       O  0.75856997  0.94802072  0.97269271    -0.87300
O1847       O  0.67313289  0.92643095  0.96651087    -0.74600
C1848       C  0.85274577  0.57165463  0.11896911     0.93500
O1849       O  0.74836298  0.57079202  0.96591464    -0.74400
O1850       O  0.82948758  0.58428366  0.12035940    -0.81900
Mg1851     Mg  0.70407519  0.01510365  0.93444117     1.58000
C1852       C  0.85715661  0.97062219  0.02574122     0.93500
O1853       O  0.66028287  0.96532602  0.90063574    -0.80200
H1854       H  0.72462653  0.89593319  0.99470844    -0.05500
C1855       C  0.83811872  0.55831775  0.01210751     0.88400
O1856       O  0.69832547  0.97995398  0.07455948    -0.74700
O1857       O  0.74505876  0.99820633  0.92379524    -0.87500
O1858       O  0.83051617  0.95392693  0.00224965    -0.80300
C1859       C  0.80221996  0.94108315  0.88861749     0.93600
C1860       C  0.65209872  0.93649613  0.88017558     0.93400
Mg1861     Mg  0.80240742  0.49300079  0.06423417     1.58000
O1862       O  0.84662031  0.54390653  0.09767611    -0.80200
O1863       O  0.75803630  0.93683453  0.03300107    -0.74400
O1864       O  0.76805723  0.93537194  0.88436143    -0.80300
O1865       O  0.65505577  0.52515398  0.94280472    -0.82000
O1866       O  0.73775098  0.57015250  0.11443830    -0.80300
C1867       C  0.74631821  0.92574294  0.99962298     0.87900
O1868       O  0.76079131  0.50884422  0.07489295    -0.87500
O1869       O  0.81538789  0.52326960  0.01226813    -0.87600
O1870       O  0.83236525  0.58090512  0.03206307    -0.74600
Mg1871     Mg  0.72097272  0.93567847  0.92570308     1.58000
O1872       O  0.82230656  0.95752763  0.91735960    -0.82000
H1873       H  0.64205573  0.93761052  0.00348098    -0.05700
O1874       O  0.74703085  0.55878091  0.02603385    -0.87300
H1875       H  0.78129084  0.61114603  0.00477892    -0.05500
H1876       H  0.72829112  0.96455759  0.10847227    -0.05700
C1877       C  0.75959903  0.58143245  0.99943907     0.87800
C1878       C  0.66734682  0.94913550  0.98622234     0.88400
C1879       C  0.72937983  0.98407068  0.08733130     0.88500
H1880       H  0.86336109  0.56996844  0.99469795    -0.05700
O1881       O  0.80745332  0.52658015  0.92360105    -0.74700
Mg1882     Mg  0.78429054  0.57104734  0.07292109     1.58000
H1883       H  0.77748411  0.54181661  0.88950767    -0.05700
C1884       C  0.64888771  0.53696307  0.97303198     0.93500
O1885       O  0.68355871  0.54898402  0.08169112    -0.81900
C1886       C  0.70376980  0.56467079  0.11054046     0.93500
O1887       O  0.67417503  0.92233217  0.87874284    -0.81900
Mg1888     Mg  0.81789787  0.49028858  0.96536488     1.58200
O1889       O  0.67510548  0.55324555  0.99700861    -0.80300
O1890       O  0.85169351  0.98346407  0.05566258    -0.82000
O1891       O  0.69642726  0.70167925  0.02053169    -0.87500
C1892       C  0.79747443  0.70676492  0.02621785     0.88500
Mg1893     Mg  0.67012405  0.70417079  0.96869494     1.58100
O1894       O  0.78207442  0.78063953  0.05825654    -0.87300
O1895       O  0.69984758  0.71358347  0.07958061    -0.74600
C1896       C  0.79745995  0.86369382  0.88658667     0.93500
O1897       O  0.73526176  0.67878167  0.95876620    -0.74400
O1898       O  0.76864917  0.83162941  0.87585910    -0.81900
Mg1899     Mg  0.71374108  0.65944886  0.01977413     1.56200
C1900       C  0.86909265  0.88543870  0.02608647     0.93500
O1901       O  0.69454754  0.63504600  0.07956695    -0.80200
H1902       H  0.75746683  0.80128858  0.09207377    -0.05500
C1903       C  0.82419764  0.80083900  0.94941586     0.88400
O1904       O  0.68062379  0.76424123  0.98211600    -0.74700
O1905       O  0.76827075  0.70203002  0.04201642    -0.87500
O1906       O  0.85004389  0.85855808  0.04831439    -0.80300
C1907       C  0.85642156  0.78377397  0.11239661     0.93600
C1908       C  0.70668670  0.64079158  0.11327179     0.93400
Mg1909     Mg  0.79160935  0.84516939  0.97981814     1.58000
O1910       O  0.81003634  0.86949859  0.92011727    -0.80200
O1911       O  0.77085291  0.82624733  0.04091364    -0.74400
O1912       O  0.82334867  0.75426875  0.11875391    -0.80300
O1913       O  0.65240339  0.61542008  0.00164101    -0.82000
O1914       O  0.68155250  0.75137951  0.88132682    -0.80300
C1915       C  0.76968338  0.80245670  0.06496825     0.87900
O1916       O  0.73712182  0.80215390  0.95785455    -0.87500
O1917       O  0.80928596  0.80321344  0.97833259    -0.87600
O1918       O  0.80535799  0.79111078  0.91926978    -0.74600
Mg1919     Mg  0.76188905  0.73017142  0.09200657     1.58000
O1920       O  0.86460619  0.80136689  0.08179246    -0.82000
H1921       H  0.65193641  0.69756343  0.04868976    -0.05700
O1922       O  0.72340992  0.72383478  0.94065906    -0.87300
H1923       H  0.74926886  0.70386606  0.90765885    -0.05500
H1924       H  0.70580441  0.82241534  0.98051805    -0.05700
C1925       C  0.73646923  0.70245572  0.93449345     0.87800
C1926       C  0.68130169  0.70404561  0.04927992     0.88400
C1927       C  0.70772486  0.79747286  0.97313727     0.88500
H1928       H  0.85358621  0.80739812  0.94973725    -0.05700
O1929       O  0.82422552  0.73992068  0.01655939    -0.74700
Mg1930     Mg  0.74313768  0.77448673  0.90740944     1.58000
H1931       H  0.79939852  0.68184094  0.01878875    -0.05700
C1932       C  0.63683540  0.61993323  0.97304575     0.93500
O1933       O  0.64035415  0.70260518  0.91665656    -0.81900
C1934       C  0.64849619  0.72155964  0.88682604     0.93500
O1935       O  0.73551983  0.67286664  0.12412846    -0.81900
Mg1936     Mg  0.83532758  0.80015649  0.02997925     1.58200
O1937       O  0.65670296  0.64631064  0.95068503    -0.80300
O1938       O  0.85289300  0.88960538  0.99778844    -0.82000
O1939       O  0.00473167  0.81014554  0.97883858    -0.87500
C1940       C  0.59155102  0.78983384  0.97355474     0.88500
Mg1941     Mg  0.97759121  0.81060164  0.03049791     1.58100
O1942       O  0.99938662  0.72108975  0.94102795    -0.87300
O1943       O  0.99205357  0.79242347  0.92090309    -0.74600
C1944       C  0.93101933  0.64586169  0.11440786     0.93500
O1945       O  0.56586425  0.82641006  0.04043545    -0.74400
O1946       O  0.93705492  0.67892735  0.12459680    -0.81900
Mg1947     Mg  0.56614592  0.84539513  0.97897543     1.58000
C1948       C  0.96458416  0.61090153  0.97412484     0.93500
O1949       O  0.57183891  0.86862754  0.91881561    -0.80200
H1950       H  0.95415800  0.70434024  0.90731917    -0.05500
C1951       C  0.51949240  0.70094361  0.04948217     0.88400
O1952       O  0.92437214  0.75197295  0.01717836    -0.74700
O1953       O  0.56897899  0.79750328  0.95810693    -0.87500
O1954       O  0.47987161  0.63863267  0.95171281    -0.80300
C1955       C  0.57195753  0.71671144  0.88842795     0.93600
C1956       C  0.57474562  0.86080928  0.88484190     0.93400
Mg1957     Mg  0.94006022  0.66189825  0.02040129     1.58000
O1958       O  0.93456782  0.63839516  0.08049172    -0.80200
O1959       O  0.94006499  0.68073930  0.95902428    -0.74400
O1960       O  0.57168622  0.74795950  0.88427514    -0.80300
O1961       O  0.56037389  0.89580457  0.99693495    -0.82000
O1962       O  0.93365573  0.75980801  0.11511848    -0.80300
C1963       C  0.96441195  0.70226092  0.93455094     0.87900
O1964       O  0.93689362  0.70977609  0.04128958    -0.87500
O1965       O  0.50143252  0.69728151  0.02063079    -0.87600
O1966       O  0.51347559  0.71472430  0.07871884    -0.74600
Mg1967     Mg  0.53397714  0.77168084  0.90809190     1.58000
O1968       O  0.55685774  0.69501894  0.91627699    -0.82000
H1969       H  0.96518184  0.81502249  0.95006504    -0.05700
O1970       O  0.50651920  0.78627779  0.05863325    -0.87300
H1971       H  0.55184262  0.80282289  0.09216008    -0.05500
H1972       H  0.88627455  0.69447646  0.01785072    -0.05700
C1973       C  0.54153498  0.80494677  0.06497445     0.87800
C1974       C  0.98645502  0.80647661  0.95015172     0.88400
C1975       C  0.91449070  0.71763588  0.02574978     0.88500
H1976       H  0.54086619  0.69252832  0.04976703    -0.05700
O1977       O  0.58181038  0.75559080  0.98229652    -0.74700
Mg1978     Mg  0.97147914  0.73548958  0.09148624     1.58000
H1979       H  0.61976083  0.81310235  0.98131550    -0.05700
C1980       C  0.54176118  0.89656173  0.02488089     0.93500
O1981       O  0.94961639  0.81296739  0.08294458    -0.81900
C1982       C  0.93396065  0.79139341  0.11074648     0.93500
O1983       O  0.56803101  0.82756255  0.87466116    -0.81900
Mg1984     Mg  0.52871767  0.69700983  0.96889913     1.58200
O1985       O  0.02669119  0.86894787  0.04744143    -0.80300
O1986       O  0.94609845  0.61168331  0.00218109    -0.82000
O1987       O  0.64704938  0.52122199  0.67843529    -0.87500
C1988       C  0.68502625  0.60831912  0.75358840     0.88500
Mg1989     Mg  0.68073652  0.51936844  0.63213683     1.58100
O1990       O  0.60921028  0.58881857  0.69268674    -0.87300
O1991       O  0.58962299  0.50394680  0.69816335    -0.74600
C1992       C  0.73023432  0.68314907  0.54770572     0.93500
O1993       O  0.73314000  0.58051222  0.70058871    -0.74400
O1994       O  0.74556284  0.66214855  0.54730983    -0.81900
Mg1995     Mg  0.67746647  0.53528600  0.73058077     1.58000
C1996       C  0.63025892  0.68638155  0.63890134     0.93500
O1997       O  0.62735617  0.98987676  0.76244899    -0.80200
H1998       H  0.55711737  0.55335294  0.67119983    -0.05500
C1999       C  0.71755220  0.66959076  0.65331682     0.88400
O2000       O  0.64378460  0.52818676  0.58971399    -0.74700
O2001       O  0.66073151  0.57651379  0.74097926    -0.87500
O2002       O  0.61401728  0.66013976  0.66267947    -0.80300
C2003       C  0.60493022  0.63400277  0.77725385     0.93600
C2004       C  0.60063193  0.98379759  0.78464950     0.93400
Mg2005     Mg  0.65174712  0.63070272  0.60077307     1.58000
O2006       O  0.70081431  0.67419419  0.56705747    -0.80200
O2007       O  0.59682963  0.58616083  0.63238025    -0.74400
O2008       O  0.59994290  0.60000207  0.78146571    -0.80300
O2009       O  0.68828044  0.98660925  0.72234378    -0.82000
O2010       O  0.73475620  0.57044820  0.55238645    -0.80300
C2011       C  0.58653441  0.57539721  0.66594848     0.87900
O2012       O  0.67013775  0.59060818  0.59093543    -0.87500
O2013       O  0.68286503  0.64595010  0.65272104    -0.87600
O2014       O  0.74079710  0.66423550  0.63436604    -0.74600
Mg2015     Mg  0.59886202  0.55215992  0.73964270     1.58000
O2016       O  0.61931581  0.65341590  0.74792535    -0.82000
H2017       H  0.60048038  0.47302938  0.66033294    -0.05700
O2018       O  0.72128073  0.57920599  0.64038706    -0.87300
H2019       H  0.77325136  0.61416316  0.66239896    -0.05500
H2020       H  0.62742761  0.55729691  0.55570066    -0.05700
C2021       C  0.74374931  0.59206325  0.66728132     0.87800
C2022       C  0.61211401  0.49833132  0.67803668     0.88400
C2023       C  0.64671245  0.55893702  0.57742638     0.88500
H2024       H  0.72833209  0.69514127  0.67054395    -0.05700
O2025       O  0.68821407  0.63911937  0.74105857    -0.74700
Mg2026     Mg  0.73282411  0.61636897  0.59383188     1.58000
H2027       H  0.70484136  0.61000244  0.77474899    -0.05700
C2028       C  0.70157260  0.98136948  0.69271861     0.93500
O2029       O  0.71490003  0.51645472  0.58497629    -0.81900
C2030       C  0.73074304  0.53690911  0.55650597     0.93500
O2031       O  0.58787809  0.50703615  0.78698093    -0.81900
Mg2032     Mg  0.65090768  0.64861503  0.69967225     1.58200
O2033       O  0.71773485  0.00804419  0.66939876    -0.80300
O2034       O  0.64052942  0.67945346  0.60816452    -0.82000
C2035       C  0.62001374  0.70365480  0.85635145     0.03100
C2036       C  0.58399469  0.70104746  0.85761771     0.03000
C2037       C  0.55493816  0.67625871  0.83267340    -0.17500
C2038       C  0.56016422  0.65279373  0.80732607     0.03100
C2039       C  0.59556692  0.65375452  0.80688366     0.03000
C2040       C  0.62530660  0.68000647  0.83075435    -0.17500
H2041       H  0.65259871  0.68116309  0.83020579     0.05100
H2042       H  0.52737478  0.67453797  0.83359411     0.05100
C2043       C  0.61894753  0.92534921  0.85454028     0.03100
C2044       C  0.58311563  0.89058029  0.85647515     0.03000
C2045       C  0.55231332  0.88621474  0.83410334    -0.17500
C2046       C  0.55574833  0.91603676  0.81089250     0.03100
C2047       C  0.59063920  0.95183298  0.81122094     0.03000
C2048       C  0.62151756  0.95532210  0.83246592    -0.17500
H2049       H  0.64862628  0.98243646  0.83176666     0.05100
H2050       H  0.52526618  0.85909925  0.83466656     0.05100
O2051       O  0.86702078  0.52869304  0.64587570    -0.87500
C2052       C  0.87398535  0.63149940  0.64030862     0.88500
Mg2053     Mg  0.86956016  0.00217371  0.69738789     1.58100
O2054       O  0.94648704  0.61463584  0.60771992    -0.87300
O2055       O  0.87885396  0.53232483  0.58685440    -0.74600
C2056       C  0.02925117  0.63068172  0.77982298     0.93500
O2057       O  0.84524529  0.56850682  0.70829096    -0.74400
O2058       O  0.99759082  0.60165795  0.79047760    -0.81900
Mg2059     Mg  0.82588971  0.54727920  0.64709010     1.58000
C2060       C  0.55036159  0.70084106  0.64073681     0.93500
O2061       O  0.80161497  0.52831370  0.58755015    -0.80200
H2062       H  0.96594183  0.58873710  0.57405126    -0.05500
C2063       C  0.96660681  0.65691035  0.71654019     0.88400
O2064       O  0.92904585  0.51215001  0.68395993    -0.74700
O2065       O  0.86903544  0.60170341  0.62517564    -0.87500
O2066       O  0.52392203  0.68122587  0.61810454    -0.80300
C2067       C  0.94965637  0.68968708  0.55369047     0.93600
C2068       C  0.80708123  0.54025792  0.55396115     0.93400
Mg2069     Mg  0.51031523  0.62361921  0.68655249     1.58000
O2070       O  0.53466155  0.64286286  0.74628988    -0.80200
O2071       O  0.99113500  0.60221470  0.62533030    -0.74400
O2072       O  0.91980374  0.65651007  0.54792044    -0.80300
O2073       O  0.78116641  0.98582826  0.66436563    -0.82000
O2074       O  0.91770547  0.51416753  0.78446583    -0.80300
C2075       C  0.96757223  0.60139873  0.60114085     0.87900
O2076       O  0.96739899  0.56909260  0.70821875    -0.87500
O2077       O  0.96892001  0.64185437  0.68756443    -0.87600
O2078       O  0.95708065  0.63815246  0.74659922    -0.74600
Mg2079     Mg  0.89590359  0.59479656  0.57462916     1.58000
O2080       O  0.96824921  0.69808021  0.58390923    -0.82000
H2081       H  0.86237420  0.48395655  0.61705083    -0.05700
O2082       O  0.88980551  0.55586641  0.72569549    -0.87300
H2083       H  0.87048902  0.58175887  0.75954442    -0.05500
H2084       H  0.98695794  0.53713444  0.68539329    -0.05700
C2085       C  0.86878908  0.56915767  0.73240130     0.87800
C2086       C  0.86914046  0.51353846  0.61688980     0.88400
C2087       C  0.96233409  0.53933918  0.69285962     0.88500
H2088       H  0.97308346  0.68640421  0.71635922    -0.05700
O2089       O  0.90722757  0.65872047  0.64924154    -0.74700
Mg2090     Mg  0.94052898  0.57579916  0.75868753     1.58000
H2091       H  0.84930470  0.63369588  0.64757289    -0.05700
C2092       C  0.78586450  0.96964658  0.69231709     0.93500
O2093       O  0.86834451  0.97262952  0.74932737    -0.81900
C2094       C  0.88772630  0.98104873  0.77905587     0.93500
O2095       O  0.83880692  0.56904859  0.54306147    -0.81900
Mg2096     Mg  0.96662202  0.66840189  0.63593301     1.58200
O2097       O  0.81218798  0.98925307  0.71508379    -0.80300
O2098       O  0.55464613  0.68497593  0.66917113    -0.82000
O2099       O  0.97469053  0.83604201  0.68805072    -0.87500
C2100       C  0.95379604  0.92244468  0.69310034     0.88500
Mg2101     Mg  0.97509792  0.80927831  0.63595251     1.58100
O2102       O  0.88558320  0.83009698  0.72495265    -0.87300
O2103       O  0.95694512  0.82305530  0.74571290    -0.74600
C2104       C  0.80881890  0.75907280  0.55061691     0.93500
O2105       O  0.99095013  0.89749119  0.62678582    -0.74400
O2106       O  0.84240970  0.76715363  0.54038270    -0.81900
Mg2107     Mg  0.50972072  0.89767389  0.68848506     1.58000
C2108       C  0.77532374  0.79461984  0.69054871     0.93500
O2109       O  0.53288332  0.90363910  0.74871006    -0.80200
H2110       H  0.86922537  0.78477186  0.75825846    -0.05500
C2111       C  0.86401756  0.84947231  0.61653792     0.88400
O2112       O  0.91683604  0.75556072  0.64824920    -0.74700
O2113       O  0.96180824  0.90023761  0.70887209    -0.87500
O2114       O  0.80289061  0.81007866  0.71336472    -0.80300
C2115       C  0.88135814  0.90340393  0.77765727     0.93600
C2116       C  0.02529897  0.90649474  0.78270964     0.93400
Mg2117     Mg  0.82604315  0.76949239  0.64495606     1.58000
O2118       O  0.80145041  0.76200433  0.58471575    -0.80200
O2119       O  0.84550877  0.77044655  0.70639152    -0.74400
O2120       O  0.91244445  0.90305793  0.78206613    -0.80300
O2121       O  0.56015448  0.89202380  0.67118396    -0.82000
O2122       O  0.92444815  0.76578281  0.55049544    -0.80300
C2123       C  0.86698591  0.79498605  0.73110190     0.87900
O2124       O  0.87411503  0.76723620  0.62407393    -0.87500
O2125       O  0.86083069  0.83134175  0.64510181    -0.87600
O2126       O  0.87800957  0.84398848  0.58728838    -0.74600
Mg2127     Mg  0.93614644  0.86507814  0.75854324     1.58000
O2128       O  0.85953118  0.88786901  0.74974050    -0.82000
H2129       H  0.97972105  0.79636058  0.71645833    -0.05700
O2130       O  0.95026787  0.83805880  0.60811092    -0.87300
H2131       H  0.96722525  0.88355053  0.57486886    -0.05500
H2132       H  0.85975428  0.71661837  0.64699832    -0.05700
C2133       C  0.96922133  0.87316818  0.60201681     0.87800
C2134       C  0.97108264  0.81762331  0.71652381     0.88400
C2135       C  0.88249098  0.74511286  0.63943705     0.88500
H2136       H  0.85510495  0.87052730  0.61656902    -0.05700
O2137       O  0.91957589  0.91227332  0.68405554    -0.74700
Mg2138     Mg  0.89934515  0.80251237  0.57439796     1.58000
H2139       H  0.97677512  0.95073176  0.68530369    -0.05700
C2140       C  0.56110479  0.87354813  0.64303032     0.93500
O2141       O  0.97762287  0.78229818  0.58306090    -0.81900
C2142       C  0.95629561  0.76689228  0.55488999     0.93500
O2143       O  0.99208216  0.89935771  0.79282870    -0.81900
Mg2144     Mg  0.86115212  0.85912478  0.69699640     1.58200
O2145       O  0.53362978  0.85847925  0.62009213    -0.80300
O2146       O  0.77589885  0.77533441  0.66288897    -0.82000
C2147       C  0.81923710  0.89426475  0.85893801     0.03100
C2148       C  0.82137488  0.93043713  0.85948340     0.03000
C2149       C  0.84767248  0.95959232  0.83550279    -0.17500
C2150       C  0.87008655  0.95303846  0.80965646     0.03100
C2151       C  0.86624387  0.91632234  0.80822461     0.03000
C2152       C  0.84142467  0.88779228  0.83322356    -0.17500
H2153       H  0.83887294  0.85972886  0.83224201     0.05100
H2154       H  0.84966702  0.98739663  0.83601435     0.05100
C2155       C  0.52136942  0.77762493  0.47542670     0.03100
C2156       C  0.51798175  0.74099112  0.47448049     0.03000
C2157       C  0.99113708  0.71169414  0.49807844    -0.17500
C2158       C  0.96817088  0.71798989  0.52326676     0.03100
C2159       C  0.97247563  0.75484488  0.52473118     0.03000
C2160       C  0.99863487  0.78393917  0.50070570    -0.17500
H2161       H  0.00105456  0.81194201  0.50146502     0.05100
H2162       H  0.98864294  0.68366570  0.49731826     0.05100
C2163       C  0.75427114  0.77796174  0.47561740     0.03100
C2164       C  0.71688445  0.74500912  0.47759462     0.03000
C2165       C  0.71155830  0.71468912  0.50071842    -0.17500
C2166       C  0.74159445  0.71613096  0.52234920     0.03100
C2167       C  0.77828951  0.75009655  0.52217649     0.03000
C2168       C  0.78399447  0.77994569  0.49812021    -0.17500
H2169       H  0.81206859  0.80590271  0.49758062     0.05100
H2170       H  0.68348022  0.68870952  0.50108807     0.05100
C2171       C  0.75136300  0.96897077  0.47704108     0.03100
C2172       C  0.71647555  0.96911575  0.47713295     0.03000
C2173       C  0.71197251  0.49339969  0.50228580    -0.17500
C2174       C  0.74120031  0.51821419  0.52682223     0.03100
C2175       C  0.77609703  0.51813563  0.52671941     0.03000
C2176       C  0.78067625  0.49372324  0.50185442    -0.17500
H2177       H  0.80783208  0.49456557  0.50130660     0.05100
H2178       H  0.68505930  0.49308360  0.50264762     0.05100
C2179       C  0.53992977  0.51006278  0.99503540     0.03100
C2180       C  0.51186374  0.97615033  0.01204320     0.03100
C2181       C  0.97445077  0.96924632  0.01557114     0.03100
C2182       C  0.96565922  0.49672936  0.00297075     0.03100
C2183       C  0.49373512  0.53068547  0.98602594     0.03100
C2184       C  0.53117255  0.53763513  0.98261174     0.03100
C2185       C  0.85273733  0.64728924  0.33614552     0.03100
C2186       C  0.81262351  0.62471193  0.33408830     0.03100
C2187       C  0.79078673  0.64272896  0.33450291     0.03100
C2188       C  0.80910019  0.68307098  0.33208185     0.03100
C2189       C  0.84924860  0.70564997  0.33388492     0.03100
C2190       C  0.87103510  0.68759212  0.33384772     0.03100
C2191       C  0.69637776  0.82550527  0.67748133     0.03100
C2192       C  0.70398235  0.86341522  0.68088943     0.03100
C2193       C  0.67633454  0.87245661  0.66950061     0.03100
C2194       C  0.64159592  0.84423205  0.65362497     0.03100
C2195       C  0.63409750  0.80641939  0.65004556     0.03100
C2196       C  0.66163495  0.79724785  0.66154036     0.03100
C2197       C  0.61353590  0.85434677  0.64333489    -0.12500
C2198       C  0.59100495  0.86504013  0.63995492    -0.14000
C2199       C  0.74593094  0.80385792  0.69286742    -0.12500
C2200       C  0.72396208  0.81511410  0.68863771    -0.14000
C2201       C  0.76404653  0.92870809  0.69598679    -0.12500
C2202       C  0.74051822  0.89504475  0.69299567    -0.14000
C2203       C  0.59737502  0.77495168  0.63835009    -0.12500
C2204       C  0.57314821  0.74151678  0.63605775    -0.14000
C2205       C  0.65362914  0.75829941  0.65611622    -0.12500
C2206       C  0.64258443  0.72521741  0.64873348    -0.14000
C2207       C  0.69288938  0.94355840  0.68323810    -0.12500
C2208       C  0.68373125  0.91104214  0.67557392    -0.14000
C2209       C  0.97308814  0.58099692  0.97077101    -0.12500
C2210       C  0.98385479  0.55856508  0.97452920    -0.14000
C2211       C  0.53279203  0.92616527  0.02783533    -0.12500
C2212       C  0.52181052  0.94838707  0.02375857    -0.14000
C2213       C  0.59623733  0.59765886  0.96799108    -0.12500
C2214       C  0.56275438  0.57390405  0.97028315    -0.14000
C2215       C  0.90962462  0.90899622  0.03106214    -0.12500
C2216       C  0.94296247  0.93313731  0.02840023    -0.14000
C2217       C  0.92740850  0.98976747  0.00865738    -0.12500
C2218       C  0.89499972  0.98026248  0.01623571    -0.14000
C2219       C  0.57822138  0.51703581  0.98942583    -0.12500
C2220       C  0.61075575  0.52673575  0.98213065    -0.14000
C2221       C  0.79481372  0.58363956  0.32712234    -0.12500
C2222       C  0.78660836  0.55129522  0.31890157    -0.14000
C2223       C  0.86726978  0.74687933  0.33987331    -0.12500
C2224       C  0.87592492  0.77947530  0.34745250    -0.14000
C2225       C  0.75027685  0.61976213  0.34209846    -0.12500
C2226       C  0.71828457  0.59557738  0.35077062    -0.14000
C2227       C  0.94353641  0.73394310  0.31728438    -0.12500
C2228       C  0.91151544  0.71035149  0.32633656    -0.14000
C2229       C  0.76328624  0.70970867  0.31747721    -0.12500
C2230       C  0.78658712  0.70065150  0.32431077    -0.14000
C2231       C  0.89844011  0.62026353  0.34977965    -0.12500
C2232       C  0.87529656  0.62966579  0.34349872    -0.14000
loop_ 
_geom_bond_atom_site_label_1 
_geom_bond_atom_site_label_2 
_geom_bond_distance 
_geom_bond_site_symmetry_2 
_ccdc_geom_bond_type 
O1           Mg3   2.165       .  S
O1           Mg9   2.155       .  S
O1           C36   1.233       .  S
C2           O15   1.236       .  S
C2           O39   1.269       .  A
C2           H41   1.081       .  S
Mg3          O32   2.155       .  S
Mg3          O47   2.287       .  S
Mg3          O43   2.248       .  S
Mg3          O14   2.286       .  S
O4          Mg46   2.155       .  S
O4          Mg29   2.177       .  S
O4           C25   1.240       .  S
O5           C36   1.267       .  A
O5          Mg29   2.300       .  S
C6            O8   1.282   1_655  A
C6         O1136   1.270       .  A
C6         C1173   1.487       .  S
O7           C35   1.274       .  A
O7           Mg9   2.312       .  S
O8          Mg40   2.342       .  S
Mg9          O15   2.137       .  S
Mg9          O23   2.222       .  S
Mg9          O11   2.280       .  S
C10          O48   1.260       .  A
C10          O16   1.267       .  A
C10         C557   1.423       .  S
O11          C18   1.270       .  A
H12          C25   1.081       .  S
C13          O27   1.233       .  S
C13          O28   1.267       .  A
C13          H38   1.081       .  S
O14          C37   1.268       .  A
O15         Mg29   2.184       .  S
O16       Mg1162   2.287       .  S
C17          O30   1.267       .  A
C17          O22   1.287       .  A
C17         C482   1.481       .  S
C18          O45   1.286       .  A
C18         C490   1.496       .  S
Mg19         O26   2.120   1_655  S
Mg19         O27   2.149   1_655  S
Mg19         O21   2.324   1_655  S
Mg19       O1136   2.275       .  S
Mg19       O1164   2.220       .  S
O20        C1122   1.270       .  A
O20       Mg1135   2.275       .  S
O21          C25   1.277       .  A
O22         Mg29   2.389       .  S
O23          C42   1.262       .  A
O24          C44   1.283       .  A
O24         Mg40   2.356       .  S
O26         Mg40   2.183       .  S
O26          C37   1.235       .  S
O27         Mg46   2.156       .  S
O28         Mg40   2.297       .  S
Mg29         O45   2.367       .  S
O30         Mg46   2.224       .  S
H31          C36   1.081       .  S
O32         Mg40   2.163       .  S
O32          C35   1.239       .  S
H33          C35   1.081       .  S
H34          C37   1.081       .  S
O39         Mg46   2.292       .  S
C42          O47   1.269       .  A
C42         C555   1.423       .  S
O43          C44   1.270       .  A
C44          C49   1.478       .  S
Mg46       O1132   2.287   1_455  S
O48       Mg1135   2.220       .  S
C49          C50   1.416       .  A
C49          C54   1.407       .  A
C50         C666   1.477       .  S
C50          C51   1.408       .  A
C51          H56   1.085       .  S
C51          C52   1.409       .  A
C52         C212   1.479       .  S
C52          C53   1.419       .  A
C53         C234   1.485       .  S
C53          C54   1.403       .  A
C54          H55   1.085       .  S
C57        C1122   1.487       .  S
C57          C58   1.420       .  A
C57          C62   1.418       .  A
C58         C118   1.495       .  S
C58          C59   1.407       .  A
C59          H64   1.086       .  S
C59          C60   1.405       .  A
C60         C174   1.486       .  S
C60          C61   1.417       .  A
C61         C270   1.485       .  S
C61          C62   1.418       .  A
C62          H63   1.085       .  S
O65         Mg67   2.164       .  S
O65         Mg73   2.126       .  S
O65         C100   1.234       .  S
C66          O79   1.237       .  S
C66         O103   1.270       .  A
C66         H105   1.081       .  S
Mg67         O96   2.136       .  S
Mg67         O78   2.291       .  S
Mg67        O669   2.259       .  S
Mg67        O665   2.221       .  S
O68        Mg110   2.128       .  S
O68         Mg93   2.142       .  S
O68          C89   1.241       .  S
O69         C100   1.270       .  A
O69         Mg93   2.309       .  S
C70          O84   1.274       .  A
C70        O1188   1.280       .  A
C70         C162   1.482       .  S
O71          C99   1.277       .  A
O71         Mg73   2.328       .  S
O72        C1186   1.280       .  A
O72        Mg104   2.323   1_655  S
Mg73         O79   2.138       .  S
Mg73         O75   2.291       .  S
Mg73        O645   2.272       .  S
C74         O112   1.264       .  A
C74          O80   1.258       .  A
C74         C553   1.423       .  S
O75          C82   1.274       .  A
H76          C89   1.081       .  S
C77          O91   1.234   1_655  S
C77          O92   1.269       .  A
C77         H102   1.081       .  S
O78         C101   1.270       .  A
O79         Mg93   2.179       .  S
O80       Mg1226   2.253       .  S
C81          O94   1.264       .  A
C81          O86   1.285       .  A
C81         C481   1.479       .  S
C82         O109   1.280       .  A
C82         C498   1.478       .  S
Mg83         O90   2.132       .  S
Mg83         O91   2.126       .  S
Mg83         O85   2.330       .  S
Mg83       O1200   2.290   1_455  S
Mg83       O1228   2.266   1_455  S
O84       Mg1199   2.290       .  S
O85          C89   1.277       .  A
O86         Mg93   2.391       .  S
O87         C106   1.265       .  A
O87        Mg631   2.272   1_545  S
O88         C108   1.284       .  A
O88        Mg104   2.378       .  S
O90        Mg104   2.180       .  S
O90         C101   1.237       .  S
O91        Mg110   2.162       .  S
O92        Mg104   2.308   1_655  S
Mg93        O109   2.313       .  S
O94        Mg110   2.216       .  S
H95         C100   1.081       .  S
O96        Mg104   2.149       .  S
O96          C99   1.241       .  S
H97          C99   1.081       .  S
H98         C101   1.081       .  S
O103       Mg110   2.294       .  S
C106        O111   1.259       .  A
C106        C552   1.426       .  S
O107        C666   1.265       .  A
O107       Mg625   2.221   1_545  S
C108        O665   1.265       .  A
C108        C608   1.477       .  S
Mg110      O1196   2.253       .  S
O111       Mg625   2.259   1_545  S
O112      Mg1199   2.266       .  S
O113       Mg115   2.159       .  S
O113       Mg121   2.129       .  S
O113        C148   1.233       .  S
C114        O127   1.236       .  S
C114        O151   1.269       .  A
C114        H153   1.081       .  S
Mg115       O144   2.135       .  S
Mg115       O159   2.265       .  S
Mg115       O155   2.206       .  S
Mg115       O126   2.295       .  S
O116       Mg158   2.137       .  S
O116       Mg141   2.154       .  S
O116        C137   1.240       .  S
O117        C148   1.268       .  A
O117       Mg141   2.300       .  S
C118        O132   1.274       .  A
C118        O678   1.285   1_545  A
O119        C147   1.277       .  A
O119       Mg121   2.327       .  S
O120        C676   1.285       .  A
O120       Mg152   2.359       .  S
Mg121       O127   2.141       .  S
Mg121       O135   2.279       .  S
Mg121       O123   2.274       .  S
C122        O160   1.266       .  A
C122        O128   1.261   1_545  A
C122        C548   1.435       .  S
O123        C130   1.272       .  A
H124        C137   1.081       .  S
C125        O139   1.234       .  S
C125        O140   1.270       .  A
C125        H708   1.081       .  S
O126        C149   1.271       .  A
O127       Mg141   2.195       .  S
O128       Mg716   2.265       .  S
C129        O142   1.266       .  A
C129        O134   1.285       .  A
C129        C497   1.477       .  S
C130        O157   1.281       .  A
C130        C489   1.485       .  S
Mg131       O138   2.156       .  S
Mg131       O139   2.128       .  S
Mg131       O133   2.329       .  S
Mg131       O690   2.282       .  S
Mg131       O718   2.286       .  S
O132       Mg689   2.282   1_545  S
O133        C137   1.277       .  A
O134       Mg141   2.382       .  S
O135        C154   1.265       .  A
O136        C156   1.292       .  A
O136       Mg152   2.429       .  S
O138       Mg152   2.194       .  S
O138        C149   1.237       .  S
O139       Mg158   2.171       .  S
O140       Mg152   2.312       .  S
Mg141       O157   2.333       .  S
O142       Mg158   2.223       .  S
H143        C148   1.081       .  S
O144       Mg152   2.154       .  S
O144        C147   1.240       .  S
H145        C147   1.081       .  S
H146        C149   1.081       .  S
H150        C683   1.081       .  S
O151       Mg158   2.291       .  S
C154        O159   1.260       .  A
C154        C550   1.434       .  S
O155        C156   1.263       .  A
C156        C161   1.487       .  S
Mg158       O686   2.265       .  S
O160       Mg689   2.286   1_545  S
C161        C162   1.419       .  A
C161        C166   1.417       .  A
C162        C163   1.407       .  A
C163        H168   1.086       .  S
C163        C164   1.401       .  A
C164        C308   1.477       .  S
C164        C165   1.408       .  A
C165        C233   1.476       .  S
C165        C166   1.418       .  A
C166        H167   1.085       .  S
O169       Mg171   2.169   1_556  S
O169       Mg177   2.149       .  S
O169        C204   1.234       .  S
C170        O741   1.235   1_545  S
C170        O207   1.268       .  A
C170        H209   1.081       .  S
Mg171       O758   2.138       .  S
Mg171       O182   2.288       .  S
Mg171       O773   2.224   1_554  S
Mg171       O769   2.224       .  S
O172       Mg197   2.150       .  S
O172       Mg772   2.141       .  S
O172        C193   1.242       .  S
O173        C204   1.269       .  A
O173       Mg197   2.306       .  S
C174        O176   1.283       .  A
C174        O188   1.268       .  A
O175        C203   1.277       .  A
O175       Mg735   2.324       .  S
O176       Mg208   2.350       .  S
Mg177       O183   2.130       .  S
Mg177       O179   2.234       .  S
Mg177       O733   2.324       .  S
Mg177       O749   2.244       .  S
C178        O216   1.257       .  A
C178        O184   1.257       .  A
C178        C544   1.420       .  S
O179        C186   1.265       .  A
H180        C193   1.082       .  S
C181        O195   1.234       .  S
C181        O196   1.269       .  A
C181        H206   1.082   1_554  S
O182        C205   1.269       .  A
O183       Mg197   2.196       .  S
O183        C728   1.235       .  S
O184       Mg772   2.227   1_554  S
C185        O198   1.267       .  A
C185        O190   1.292       .  A
C185        C474   1.489       .  S
C186        O213   1.287       .  A
C186        C369   1.494       .  S
Mg187       O194   2.124   1_565  S
Mg187       O195   2.147   1_565  S
Mg187       O188   2.255   1_565  S
Mg187       O747   2.332       .  S
Mg187       O774   2.243       .  S
O189        C193   1.278   1_554  A
O189       Mg745   2.332       .  S
O190       Mg197   2.424       .  S
O191        C210   1.257       .  A
O191       Mg735   2.244       .  S
O192        C212   1.287       .  A
O192       Mg208   2.391       .  S
O194       Mg208   2.187       .  S
O194        C763   1.236   1_545  S
O195       Mg214   2.174   1_544  S
O196       Mg208   2.307       .  S
Mg197       O213   2.381       .  S
O198       Mg772   2.228       .  S
H199        C204   1.081   1_554  S
O200       Mg208   2.139       .  S
O200       Mg729   2.138       .  S
O200        C203   1.241   1_554  S
H201        C203   1.082   1_554  S
H202        C205   1.081       .  S
C205        O752   1.236       .  S
O207       Mg214   2.287   1_545  S
C210        O215   1.257       .  A
C210        C546   1.421       .  S
O211        C212   1.266       .  A
O211       Mg729   2.224       .  S
Mg214       O730   2.141       .  S
Mg214       O742   2.227   1_556  S
Mg214       O756   2.228       .  S
O215       Mg729   2.224   1_556  S
O216       Mg745   2.243       .  S
O217       Mg219   2.170   1_554  S
O217       Mg225   2.152       .  S
O217        C252   1.228       .  S
C218        O231   1.238       .  S
C218        O255   1.270       .  A
C218        H257   1.081       .  S
Mg219       O248   2.138       .  S
Mg219       O263   2.205       .  S
Mg219       O259   2.204       .  S
Mg219       O230   2.288       .  S
O220       Mg262   2.142       .  S
O220       Mg245   2.148       .  S
O220        C241   1.240       .  S
O221        C252   1.262       .  A
O221       Mg245   2.293       .  S
C222        O224   1.280       .  A
C222        O236   1.278       .  A
C222        C473   1.479       .  S
O223        C251   1.279       .  A
O223       Mg225   2.341   1_556  S
O224       Mg256   2.296       .  S
Mg225       O231   2.141       .  S
Mg225       O239   2.290       .  S
Mg225       O227   2.327       .  S
C226        O264   1.266   1_554  A
C226        O232   1.251       .  A
C226        C541   1.429       .  S
O227        C234   1.279       .  A
H228        C241   1.081       .  S
C229        O243   1.228       .  S
C229        O244   1.262       .  A
C229        H254   1.081       .  S
O230        C253   1.270       .  A
O231       Mg245   2.202       .  S
O232       Mg262   2.214       .  S
C233        O246   1.260       .  A
C233        O238   1.282       .  A
C234        O261   1.282       .  A
Mg235       O242   2.141       .  S
Mg235       O243   2.152       .  S
Mg235       O236   2.319       .  S
Mg235       O237   2.335   1_556  S
Mg235       O264   2.290       .  S
O237        C241   1.278       .  A
O238       Mg245   2.365       .  S
O239        C258   1.266   1_554  A
O240        C260   1.281       .  A
O240       Mg256   2.365       .  S
O242       Mg256   2.199       .  S
O242        C253   1.237       .  S
O243       Mg262   2.166   1_556  S
O244       Mg256   2.295       .  S
Mg245       O261   2.309       .  S
O246       Mg262   2.191       .  S
H247        C252   1.081       .  S
O248       Mg256   2.146       .  S
O248        C251   1.242       .  S
H249        C251   1.081       .  S
H250        C253   1.081       .  S
O255       Mg262   2.286       .  S
C258        O263   1.249       .  A
C258        C539   1.428       .  S
O259        C260   1.261       .  A
C260        C361   1.479       .  S
O265       Mg267   2.160   1_556  S
O265      Mg1389   2.147       .  S
O265        C300   1.230       .  S
C266        O279   1.238       .  S
C266        O303   1.271       .  A
C266        H305   1.081       .  S
Mg267      O1412   2.133       .  S
Mg267       O311   2.254       .  S
Mg267       O307   2.223       .  S
Mg267       O278   2.294       .  S
O268      Mg1426   2.134       .  S
O268      Mg1409   2.154       .  S
O268        C289   1.241       .  S
O269        C300   1.264       .  A
O269      Mg1409   2.294       .  S
C270        O272   1.280       .  A
C270        O284   1.277       .  A
O271        C299   1.279       .  A
O271       Mg273   2.335   1_554  S
O272       Mg304   2.314       .  S
Mg273       O279   2.128       .  S
Mg273      O1381   2.147       .  S
Mg273       O287   2.256       .  S
Mg273       O275   2.321       .  S
C274        O312   1.265   1_556  A
C274       O1396   1.259       .  A
C274        C535   1.421       .  S
O275        C282   1.277       .  A
H276        C289   1.081       .  S
C277        O291   1.231       .  S
C277        O292   1.265       .  A
C277        H302   1.081       .  S
O278        C301   1.271       .  A
O279       Mg293   2.187       .  S
O280       C1390   1.259       .  A
O280       Mg310   2.253   1_655  S
C281        O294   1.266       .  A
C281        O286   1.278       .  A
C281        C362   1.472       .  S
C282        O309   1.278       .  A
C282        C370   1.481       .  S
Mg283       O290   2.135       .  S
Mg283      O1407   2.146       .  S
Mg283       O284   2.323       .  S
Mg283       O285   2.332   1_554  S
Mg283       O312   2.258       .  S
O285        C289   1.278       .  A
O286       Mg293   2.341       .  S
O287        C306   1.264   1_556  A
O288        C308   1.281       .  A
O288       Mg304   2.360       .  S
O290       Mg304   2.184       .  S
O290        C301   1.238       .  S
O291       Mg310   2.163   1_554  S
O291      Mg1399   2.146   1_455  S
O292      Mg1420   2.297   1_455  S
Mg293      O1384   2.154   1_455  S
Mg293       O309   2.300       .  S
Mg293      O1385   2.294   1_455  S
O294       Mg310   2.228       .  S
H295        C300   1.081       .  S
O296      Mg1383   2.133   1_455  S
O296      Mg1420   2.160   1_455  S
O296        C299   1.242       .  S
H297        C299   1.081       .  S
H298        C301   1.081       .  S
O303       Mg310   2.291       .  S
Mg304      O1412   2.160       .  S
Mg304      O1408   2.297       .  S
C306       O1427   1.259       .  A
C306        C537   1.421       .  S
O307        C308   1.265       .  A
Mg310      O1384   2.134   1_455  S
O311       C1422   1.259       .  A
O313       Mg315   2.176       .  S
O313       Mg321   2.147       .  S
O313        C348   1.235   1_545  S
C314        O327   1.235       .  S
C314        O351   1.269       .  A
C314        H353   1.081       .  S
Mg315       O344   2.137       .  S
Mg315       O355   2.227       .  S
Mg315       O326   2.288       .  S
Mg315       O917   2.226       .  S
O316       Mg358   2.140       .  S
O316       Mg341   2.144       .  S
O316        C337   1.242       .  S
O317        C348   1.271   1_545  A
O317       Mg341   2.317       .  S
C318        O320   1.283       .  A
C318        O332   1.265       .  A
C318        C492   1.484       .  S
O319        C347   1.277       .  A
O319       Mg321   2.325       .  S
O320       Mg352   2.351       .  S
Mg321       O327   2.127       .  S
Mg321       O893   2.241   1_545  S
Mg321       O881   2.240   1_545  S
C322        O360   1.258       .  A
C322        O328   1.258       .  A
C322        C532   1.424       .  S
O323        C330   1.265       .  A
O323       Mg879   2.240       .  S
H324        C337   1.081       .  S
C325        O339   1.233       .  S
C325        O340   1.267       .  A
C325        H350   1.081       .  S
O326        C349   1.268       .  A
O327       Mg341   2.179       .  S
O328       Mg358   2.221       .  S
C329        O342   1.266       .  A
C329        O334   1.292       .  A
C329        C365   1.487       .  S
C330        O915   1.285       .  A
C330        C373   1.490       .  S
Mg331       O338   2.130       .  S
Mg331       O339   2.152       .  S
Mg331       O332   2.228       .  S
Mg331       O333   2.327       .  S
Mg331       O360   2.251       .  S
O333        C337   1.278       .  A
O334       Mg341   2.422       .  S
O335        C354   1.256       .  A
O335       Mg879   2.241       .  S
O336        C356   1.289       .  A
O336       Mg352   2.403       .  S
O338       Mg352   2.204       .  S
O338        C349   1.235       .  S
O339       Mg358   2.161       .  S
O340       Mg352   2.299       .  S
Mg341       O357   2.368       .  S
O342       Mg358   2.219       .  S
H343        C348   1.082       .  S
O344       Mg352   2.138       .  S
O344        C347   1.241       .  S
H345        C347   1.082       .  S
H346        C349   1.081       .  S
O351       Mg358   2.288       .  S
C354        O359   1.257       .  A
C354        C533   1.421       .  S
O355        C356   1.267       .  A
C356        C500   1.484       .  S
O357        C888   1.285   1_545  A
O359       Mg873   2.226       .  S
C361        C362   1.411       .  A
C361        C366   1.415       .  A
C362        C363   1.405       .  A
C363        H368   1.085       .  S
C363        C364   1.402       .  A
C364       C1498   1.479       .  S
C364        C365   1.417       .  A
C365        C366   1.412       .  A
C366        H367   1.084       .  S
C369        C370   1.416       .  A
C369        C374   1.409       .  A
C370        C371   1.417       .  A
C371        H376   1.085       .  S
C371        C372   1.415       .  A
C372       C1558   1.484       .  S
C372        C373   1.416       .  A
C373        C374   1.409       .  A
C374        H375   1.086       .  S
O377       Mg385   2.152       .  S
O377       Mg937   2.168       .  S
O377        C412   1.228       .  S
C378        O391   1.237       .  S
C378        O415   1.269       .  A
C378        H417   1.081       .  S
Mg379       O935   2.168       .  S
Mg379       O966   2.137       .  S
Mg379       O423   2.204       .  S
Mg379       O419   2.204       .  S
Mg379       O948   2.287       .  S
O380       Mg422   2.138       .  S
O380       Mg405   2.137       .  S
O380        C401   1.241       .  S
O381        C412   1.263       .  A
O381       Mg405   2.296       .  S
C382        O384   1.280       .  A
C382       O1512   1.277       .  A
C382       C1480   1.479       .  S
O383        C411   1.278       .  A
O383       Mg385   2.335       .  S
O384       Mg416   2.294       .  S
Mg385       O391   2.146       .  S
Mg385       O387   2.306       .  S
Mg385       O957   2.293   1_545  S
C386        O424   1.265       .  A
C386        O392   1.249       .  A
C386        C530   1.426       .  S
O387        C394   1.276       .  A
H388        C401   1.081       .  S
C389        O403   1.228       .  S
C389        O404   1.263       .  A
C389        H414   1.081       .  S
O390        C413   1.270       .  A
O390       Mg937   2.287       .  S
O391       Mg405   2.204       .  S
O392      Mg1538   2.204   1_455  S
C393        O406   1.261       .  A
C393        O398   1.282       .  A
C393        C484   1.483       .  S
C394        O421   1.280       .  A
C394        C501   1.474       .  S
Mg395      O1518   2.142   1_455  S
Mg395      O1519   2.152   1_455  S
Mg395       O396   2.315       .  S
Mg395       O424   2.287       .  S
Mg395      O1513   2.336   1_455  S
O396       C1498   1.277       .  A
O397        C401   1.278       .  A
O397      Mg1511   2.336       .  S
O398       Mg405   2.373       .  S
O399        C418   1.266       .  A
O399       Mg943   2.293       .  S
O400        C978   1.281   1_545  A
O400       Mg416   2.363       .  S
O402       Mg416   2.198       .  S
O402      Mg1511   2.142       .  S
O402        C413   1.237       .  S
O403       Mg422   2.170       .  S
O403      Mg1511   2.152       .  S
O404       Mg416   2.296       .  S
Mg405       O421   2.291       .  S
O406       Mg422   2.205       .  S
H407        C412   1.081   1_565  S
O408       Mg416   2.139       .  S
O408       Mg937   2.137       .  S
O408        C411   1.241       .  S
H409        C411   1.081       .  S
H410        C413   1.081       .  S
O415       Mg422   2.287       .  S
C418        O423   1.250       .  A
C418        C527   1.430       .  S
O419        C420   1.261       .  A
C420        O958   1.281       .  A
C420        C476   1.478       .  S
Mg422      O1508   2.204       .  S
O425       Mg427   2.157       .  S
O425      Mg1549   2.146       .  S
O425        C460   1.231       .  S
C426        O439   1.239       .  S
C426        O463   1.272       .  A
C426        H465   1.081       .  S
Mg427       O456   2.138       .  S
Mg427       O467   2.210       .  S
Mg427       O438   2.294       .  S
Mg427      O1587   2.260       .  S
O428       Mg470   2.136       .  S
O428       Mg453   2.161       .  S
O428        C449   1.241       .  S
O429        C460   1.264       .  A
O429       Mg453   2.294       .  S
C430        O432   1.283       .  A
C430        O444   1.278       .  A
C430        C493   1.497       .  S
O431        C459   1.279       .  A
O431      Mg1549   2.337       .  S
O432       Mg464   2.339       .  S
Mg433      O1541   2.146   1_455  S
Mg433      O1555   2.129   1_455  S
Mg433       O447   2.259       .  S
Mg433       O435   2.315       .  S
Mg433      O1547   2.337   1_455  S
C434        O472   1.265       .  A
C434        O440   1.261       .  A
C434        C525   1.422       .  S
O435       C1558   1.276       .  A
H436        C449   1.081       .  S
C437        O451   1.230       .  S
C437        O452   1.264       .  A
C437        H462   1.081       .  S
O438        C461   1.272       .  A
O439       Mg453   2.189       .  S
O439      Mg1549   2.129       .  S
O440       Mg470   2.256       .  S
C441        O454   1.266       .  A
C441        O446   1.278       .  A
C441        C477   1.473       .  S
C442        O469   1.279       .  A
C442       O1551   1.276       .  A
C442       C1488   1.484       .  S
Mg443       O450   2.134       .  S
Mg443       O451   2.153       .  S
Mg443       O444   2.330       .  S
Mg443       O445   2.332       .  S
Mg443       O472   2.258       .  S
O445        C449   1.278       .  A
O446       Mg453   2.342       .  S
O447        C466   1.264       .  A
O448        C468   1.279       .  A
O448       Mg464   2.346       .  S
O450       Mg464   2.189       .  S
O450        C461   1.238       .  S
O451       Mg470   2.164       .  S
O452       Mg464   2.290       .  S
Mg453       O469   2.312       .  S
O454       Mg470   2.232       .  S
H455        C460   1.081       .  S
O456       Mg464   2.177       .  S
O456        C459   1.241       .  S
H457        C459   1.081       .  S
H458        C461   1.081       .  S
O463       Mg470   2.293       .  S
C466        O471   1.261       .  A
C466        C524   1.424       .  S
O467        C468   1.264       .  A
C468        C485   1.469       .  S
O471      Mg1543   2.260   1_455  S
C473        C474   1.419       .  A
C473        C478   1.403       .  A
C474        C475   1.412       .  A
C475        H480   1.085       .  S
C475        C476   1.414       .  A
C476        C477   1.411       .  A
C477        C478   1.404       .  A
C478        H479   1.085       .  S
C481        C482   1.415       .  A
C481       C1602   1.406   1_455  A
C482       C1599   1.413   1_455  A
C483        H488   1.085       .  S
C483        C484   1.410       .  A
C483       C1598   1.413       .  A
C484        C485   1.409       .  A
C485        C486   1.410       .  A
C486        H487   1.085       .  S
C486       C1597   1.406       .  A
C489        C490   1.420       .  A
C489        C494   1.418       .  A
C490        C491   1.406       .  A
C491        H496   1.085       .  S
C491        C492   1.420       .  A
C492        C493   1.419       .  A
C493        C494   1.407       .  A
C494        H495   1.085       .  S
C497        C498   1.419       .  A
C497       C1060   1.407       .  A
C498       C1057   1.408       .  A
C499        H504   1.086       .  S
C499        C500   1.400   1_565  A
C499       C1056   1.408       .  A
C500        C501   1.418       .  A
C501        C502   1.407   1_545  A
C502        H503   1.085       .  S
C502       C1055   1.407       .  A
C505        C545   1.445       .  S
C505        C510   1.406       .  A
C505       C1064   1.401   1_546  A
C506        C538   1.437       .  S
C506       C1063   1.401   1_554  A
C506       C1623   1.402   1_455  A
C507        C542   1.441       .  S
C507       C1622   1.402       .  A
C507       C1066   1.405       .  A
C508       C1101   1.444       .  S
C508       C1065   1.405       .  A
C508       C1625   1.401   1_564  A
C509       C1652   1.437       .  S
C509        C510   1.402   1_655  A
C509       C1624   1.401   1_546  A
C510        C540   1.440       .  S
C511        C558   1.443       .  S
C511        C512   1.403       .  A
C511        C516   1.406       .  A
C512        C547   1.452       .  S
C512        C513   1.405       .  A
C513        C551   1.443       .  S
C513        C514   1.407       .  A
C514        C556   1.443       .  S
C514        C515   1.404       .  A
C515        C549   1.452       .  S
C515        C516   1.405       .  A
C516        C554   1.441       .  S
C517        C526   1.439       .  S
C517        C518   1.404       .  A
C517        C522   1.402       .  A
C518        C528   1.441       .  S
C518        C519   1.407       .  A
C519        C534   1.444       .  S
C519        C520   1.400       .  A
C520        C523   1.441       .  S
C520        C521   1.402       .  A
C521        C529   1.439       .  S
C521        C522   1.407       .  A
C522        C531   1.447       .  S
C523        C524   1.201       .  T
C525        C526   1.200       .  T
C527        C528   1.202       .  T
C529        C530   1.200       .  T
C531        C532   1.201       .  T
C533        C534   1.199       .  T
C535        C536   1.199       .  T
C536       C1625   1.437       .  S
C537        C538   1.198       .  T
C539        C540   1.201       .  T
C541        C542   1.201       .  T
C543       C1066   1.444       .  S
C543        C544   1.198       .  T
C545        C546   1.199       .  T
C547        C548   1.207       .  T
C549        C550   1.206       .  T
C551        C552   1.202       .  T
C553        C554   1.200       .  T
C555        C556   1.201       .  T
C557        C558   1.201       .  T
O559       Mg561   2.165       .  S
O559       Mg567   2.155       .  S
O559        C594   1.233       .  S
C560        O573   1.236       .  S
C560        O597   1.269       .  A
C560        H599   1.081       .  S
Mg561       O590   2.155       .  S
Mg561       O605   2.287       .  S
Mg561       O601   2.248       .  S
Mg561       O572   2.286       .  S
O562       Mg604   2.155       .  S
O562       Mg587   2.177       .  S
O562        C583   1.240       .  S
O563        C594   1.267       .  A
O563       Mg587   2.300       .  S
C564        O566   1.282   1_655  A
C564       O1694   1.270       .  A
C564       C1731   1.487       .  S
O565        C593   1.274       .  A
O565       Mg567   2.312       .  S
O566       Mg598   2.342       .  S
Mg567       O573   2.137       .  S
Mg567       O581   2.222       .  S
Mg567       O569   2.280       .  S
C568        O606   1.260       .  A
C568        O574   1.267       .  A
C568       C1115   1.423       .  S
O569        C576   1.270       .  A
H570        C583   1.082       .  S
C571        O585   1.233       .  S
C571        O586   1.267       .  A
C571        H596   1.081       .  S
O572        C595   1.268       .  A
O573       Mg587   2.184       .  S
O574      Mg1720   2.287       .  S
C575        O588   1.267       .  A
C575        O580   1.287       .  A
C575       C1040   1.481       .  S
C576        O603   1.286       .  A
C576       C1048   1.496       .  S
Mg577       O584   2.120   1_655  S
Mg577       O585   2.149   1_655  S
Mg577      O1694   2.275       .  S
Mg577       O579   2.324   1_655  S
Mg577      O1722   2.220       .  S
O578       C1680   1.270       .  A
O578      Mg1693   2.275       .  S
O579        C583   1.277       .  A
O580       Mg587   2.389       .  S
O581        C600   1.262       .  A
O582        C602   1.283       .  A
O582       Mg598   2.356       .  S
O584       Mg598   2.183       .  S
O584        C595   1.235       .  S
O585       Mg604   2.156       .  S
O586       Mg598   2.297       .  S
Mg587       O603   2.367       .  S
O588       Mg604   2.224       .  S
H589        C594   1.081       .  S
O590       Mg598   2.163       .  S
O590        C593   1.239       .  S
H591        C593   1.081       .  S
H592        C595   1.081       .  S
O597       Mg604   2.292       .  S
C600        O605   1.269       .  A
C600       C1113   1.423       .  S
O601        C602   1.270       .  A
C602        C607   1.478       .  S
Mg604      O1690   2.287   1_455  S
O606      Mg1693   2.220       .  S
C607        C608   1.416       .  A
C607        C612   1.407       .  A
C608        C609   1.408       .  A
C609        H614   1.085       .  S
C609        C610   1.409       .  A
C610        C770   1.479       .  S
C610        C611   1.419       .  A
C611        C792   1.485       .  S
C611        C612   1.403       .  A
C612        H613   1.085       .  S
C615       C1680   1.487       .  S
C615        C616   1.420       .  A
C615        C620   1.418       .  A
C616        C676   1.495       .  S
C616        C617   1.407       .  A
C617        H622   1.086       .  S
C617        C618   1.405       .  A
C618        C732   1.486       .  S
C618        C619   1.417       .  A
C619        C828   1.485       .  S
C619        C620   1.418       .  A
C620        H621   1.085       .  S
O623       Mg625   2.164       .  S
O623       Mg631   2.126       .  S
O623        C658   1.234       .  S
C624        O637   1.237       .  S
C624        O661   1.270       .  A
C624        H663   1.081       .  S
Mg625       O654   2.136       .  S
Mg625       O636   2.291       .  S
O626       Mg668   2.128       .  S
O626       Mg651   2.142       .  S
O626        C647   1.241       .  S
O627        C658   1.270       .  A
O627       Mg651   2.309       .  S
C628       O1746   1.280       .  A
C628        O642   1.274       .  A
C628        C720   1.482       .  S
O629        C657   1.277       .  A
O629       Mg631   2.328       .  S
O630       C1744   1.280       .  A
O630       Mg662   2.323   1_655  S
Mg631       O637   2.138       .  S
Mg631       O633   2.290       .  S
C632        O670   1.264       .  A
C632        O638   1.258       .  A
C632       C1111   1.423       .  S
O633        C640   1.274       .  A
H634        C647   1.081       .  S
C635        O649   1.234   1_655  S
C635        O650   1.269       .  A
C635        H660   1.081       .  S
O636        C659   1.270       .  A
O637       Mg651   2.179       .  S
O638      Mg1784   2.253       .  S
C639        O652   1.264       .  A
C639        O644   1.285       .  A
C639       C1039   1.479       .  S
C640        O667   1.280       .  A
C640       C1056   1.478       .  S
Mg641       O648   2.132       .  S
Mg641       O649   2.126       .  S
Mg641      O1758   2.290   1_455  S
Mg641       O643   2.330       .  S
Mg641      O1786   2.266   1_455  S
O642      Mg1757   2.290       .  S
O643        C647   1.277       .  A
O644       Mg651   2.391       .  S
O645        C664   1.265       .  A
O646        C666   1.284   1_565  A
O646       Mg662   2.378       .  S
O648       Mg662   2.180       .  S
O648        C659   1.237       .  S
O649       Mg668   2.162       .  S
O650       Mg662   2.308   1_655  S
Mg651       O667   2.313       .  S
O652       Mg668   2.216       .  S
H653        C658   1.081       .  S
O654       Mg662   2.149       .  S
O654        C657   1.241       .  S
H655        C657   1.081       .  S
H656        C659   1.081       .  S
O661       Mg668   2.294       .  S
C664        O669   1.259       .  A
C664       C1110   1.426       .  S
Mg668      O1754   2.253       .  S
O670      Mg1757   2.266       .  S
O671       Mg673   2.159       .  S
O671       Mg679   2.129       .  S
O671        C706   1.233       .  S
C672        O685   1.236       .  S
C672        O709   1.269       .  A
C672        H711   1.081       .  S
Mg673       O702   2.135       .  S
Mg673       O717   2.265       .  S
Mg673       O713   2.206       .  S
Mg673       O684   2.295       .  S
O674       Mg716   2.137       .  S
O674       Mg699   2.154       .  S
O674        C695   1.240       .  S
O675        C706   1.268       .  A
O675       Mg699   2.300       .  S
C676        O690   1.274       .  A
O677        C705   1.277       .  A
O677       Mg679   2.327       .  S
O678       Mg710   2.359       .  S
Mg679       O685   2.142       .  S
Mg679       O693   2.279       .  S
Mg679       O681   2.274       .  S
C680        O718   1.266       .  A
C680        O686   1.261       .  A
C680       C1106   1.435       .  S
O681        C688   1.272       .  A
H682        C695   1.081       .  S
C683        O697   1.234   1_545  S
C683        O698   1.270   1_545  A
O684        C707   1.271       .  A
O685       Mg699   2.195       .  S
C687        O700   1.266       .  A
C687        O692   1.285       .  A
C687       C1055   1.477       .  S
C688        O715   1.281       .  A
C688       C1047   1.485       .  S
Mg689       O696   2.156       .  S
Mg689       O697   2.128       .  S
Mg689       O691   2.329       .  S
O691        C695   1.277       .  A
O692       Mg699   2.382       .  S
O693        C712   1.265       .  A
O694        C714   1.292       .  A
O694       Mg710   2.429       .  S
O696       Mg710   2.194       .  S
O696        C707   1.237       .  S
O697       Mg716   2.171       .  S
O698       Mg710   2.312       .  S
Mg699       O715   2.333       .  S
O700       Mg716   2.223       .  S
H701        C706   1.081       .  S
O702       Mg710   2.154       .  S
O702        C705   1.240       .  S
H703        C705   1.081       .  S
H704        C707   1.081       .  S
O709       Mg716   2.291       .  S
C712        O717   1.260       .  A
C712       C1108   1.434       .  S
O713        C714   1.263       .  A
C714        C719   1.487       .  S
C719        C720   1.419       .  A
C719        C724   1.417       .  A
C720        C721   1.407       .  A
C721        H726   1.086       .  S
C721        C722   1.401       .  A
C722        C866   1.477       .  S
C722        C723   1.408       .  A
C723        C791   1.476       .  S
C723        C724   1.418       .  A
C724        H725   1.085       .  S
O727       Mg729   2.169   1_566  S
O727       Mg735   2.149   1_565  S
O727        C762   1.234       .  S
C728        O765   1.268       .  A
C728        H767   1.081       .  S
Mg729       O740   2.288   1_545  S
O730       Mg755   2.150       .  S
O730        C751   1.242       .  S
O731        C762   1.269       .  A
O731       Mg755   2.306       .  S
C732        O734   1.283       .  A
C732        O746   1.268       .  A
O733        C761   1.277       .  A
O734       Mg766   2.350       .  S
Mg735       O741   2.130   1_545  S
Mg735       O737   2.234   1_545  S
C736        O774   1.257       .  A
C736        O742   1.257       .  A
C736       C1102   1.420       .  S
O737        C744   1.265       .  A
H738        C751   1.082       .  S
C739        O753   1.234       .  S
C739        O754   1.269       .  A
C739        H764   1.082   1_554  S
O740        C763   1.269       .  A
O741       Mg755   2.196       .  S
C743        O756   1.267       .  A
C743        O748   1.292       .  A
C743       C1032   1.489       .  S
C744        O771   1.287       .  A
C744        C927   1.494       .  S
Mg745       O752   2.124       .  S
Mg745       O753   2.147       .  S
Mg745       O746   2.255       .  S
O747        C751   1.278   1_554  A
O748       Mg755   2.424       .  S
O749        C768   1.257       .  A
O750        C770   1.287       .  A
O750       Mg766   2.391       .  S
O752       Mg766   2.187       .  S
O753       Mg772   2.174   1_554  S
O754       Mg766   2.308       .  S
Mg755       O771   2.381       .  S
H757        C762   1.081   1_554  S
O758       Mg766   2.139       .  S
O758        C761   1.241   1_554  S
H759        C761   1.082   1_554  S
H760        C763   1.081       .  S
O765       Mg772   2.287       .  S
C768        O773   1.257       .  A
C768       C1104   1.421       .  S
O769        C770   1.266       .  A
O775       Mg777   2.170   1_554  S
O775       Mg783   2.152       .  S
O775        C810   1.228       .  S
C776        O789   1.238       .  S
C776        O813   1.270       .  A
C776        H815   1.081       .  S
Mg777       O806   2.138       .  S
Mg777       O821   2.205       .  S
Mg777       O817   2.204       .  S
Mg777       O788   2.288       .  S
O778       Mg820   2.142       .  S
O778       Mg803   2.148       .  S
O778        C799   1.240       .  S
O779        C810   1.262       .  A
O779       Mg803   2.293       .  S
C780        O782   1.280       .  A
C780        O794   1.278       .  A
C780       C1031   1.479       .  S
O781        C809   1.279       .  A
O781       Mg783   2.341   1_556  S
O782       Mg814   2.296       .  S
Mg783       O789   2.141       .  S
Mg783       O797   2.290       .  S
Mg783       O785   2.327       .  S
C784        O822   1.266   1_554  A
C784        O790   1.251       .  A
C784       C1099   1.429       .  S
O785        C792   1.279       .  A
H786        C799   1.081       .  S
C787        O801   1.228       .  S
C787        O802   1.262       .  A
C787        H812   1.081       .  S
O788        C811   1.270       .  A
O789       Mg803   2.202       .  S
O790       Mg820   2.214       .  S
C791        O804   1.260       .  A
C791        O796   1.282       .  A
C792        O819   1.282       .  A
Mg793       O800   2.141       .  S
Mg793       O801   2.152       .  S
Mg793       O794   2.319       .  S
Mg793       O795   2.335   1_556  S
Mg793       O822   2.290       .  S
O795        C799   1.278       .  A
O796       Mg803   2.365       .  S
O797        C816   1.266   1_554  A
O798        C818   1.281       .  A
O798       Mg814   2.365       .  S
O800       Mg814   2.199       .  S
O800        C811   1.237       .  S
O801       Mg820   2.166   1_556  S
O802       Mg814   2.295       .  S
Mg803       O819   2.309       .  S
O804       Mg820   2.191       .  S
H805        C810   1.081       .  S
O806       Mg814   2.146       .  S
O806        C809   1.242       .  S
H807        C809   1.081       .  S
H808        C811   1.081       .  S
O813       Mg820   2.286       .  S
C816        O821   1.249       .  A
C816       C1097   1.428       .  S
O817        C818   1.261       .  A
C818        C919   1.479       .  S
O823       Mg825   2.160   1_556  S
O823      Mg1947   2.147       .  S
O823        C858   1.230       .  S
C824        O837   1.238       .  S
C824        O861   1.271       .  A
C824        H863   1.081       .  S
Mg825      O1970   2.133       .  S
Mg825       O869   2.254       .  S
Mg825       O865   2.223       .  S
Mg825       O836   2.294       .  S
O826      Mg1984   2.134       .  S
O826      Mg1967   2.154       .  S
O826        C847   1.241       .  S
O827        C858   1.264       .  A
O827      Mg1967   2.294       .  S
C828        O830   1.280       .  A
C828        O842   1.277       .  A
O829        C857   1.279       .  A
O829       Mg831   2.335   1_554  S
O830       Mg862   2.314       .  S
Mg831      O1939   2.147       .  S
Mg831       O837   2.128       .  S
Mg831       O845   2.256       .  S
Mg831       O833   2.321       .  S
C832        O870   1.265   1_556  A
C832       O1954   1.259       .  A
C832       C1093   1.421       .  S
O833        C840   1.277       .  A
H834        C847   1.081       .  S
C835        O849   1.231       .  S
C835        O850   1.265       .  A
C835        H860   1.081       .  S
O836        C859   1.271       .  A
O837       Mg851   2.187       .  S
O838       C1948   1.259       .  A
O838       Mg868   2.253   1_655  S
C839        O852   1.266       .  A
C839        O844   1.278       .  A
C839        C920   1.472       .  S
C840        O867   1.278       .  A
C840        C928   1.481       .  S
Mg841       O848   2.135       .  S
Mg841      O1965   2.146       .  S
Mg841       O842   2.323       .  S
Mg841       O843   2.332   1_554  S
Mg841       O870   2.258       .  S
O843        C847   1.278       .  A
O844       Mg851   2.341       .  S
O845        C864   1.264   1_556  A
O846        C866   1.281       .  A
O846       Mg862   2.360       .  S
O848       Mg862   2.184       .  S
O848        C859   1.238       .  S
O849      Mg1957   2.146   1_455  S
O849       Mg868   2.163   1_554  S
O850      Mg1978   2.297   1_455  S
Mg851      O1942   2.154   1_455  S
Mg851      O1943   2.294   1_455  S
Mg851       O867   2.300       .  S
O852       Mg868   2.228       .  S
H853        C858   1.081       .  S
O854      Mg1941   2.133   1_455  S
O854      Mg1978   2.160   1_455  S
O854        C857   1.242       .  S
H855        C857   1.081       .  S
H856        C859   1.081       .  S
O861       Mg868   2.291       .  S
Mg862      O1970   2.160       .  S
Mg862      O1966   2.297       .  S
C864       O1985   1.259       .  A
C864       C1095   1.421       .  S
O865        C866   1.265       .  A
Mg868      O1942   2.134   1_455  S
O869       C1980   1.259       .  A
O871       Mg873   2.176       .  S
O871       Mg879   2.147       .  S
O871        C906   1.235       .  S
C872        O885   1.235       .  S
C872        O909   1.269       .  A
C872        H911   1.081       .  S
Mg873       O902   2.137       .  S
Mg873       O913   2.227       .  S
Mg873       O884   2.288       .  S
O874       Mg916   2.140       .  S
O874       Mg899   2.144       .  S
O874        C895   1.242       .  S
O875        C906   1.271       .  A
O875       Mg899   2.317       .  S
C876        O878   1.283       .  A
C876        O890   1.265       .  A
C876       C1050   1.484       .  S
O877        C905   1.277       .  A
O877       Mg879   2.325       .  S
O878       Mg910   2.351       .  S
Mg879       O885   2.127       .  S
C880        O918   1.258       .  A
C880        O886   1.258       .  A
C880       C1090   1.424       .  S
O881        C888   1.265       .  A
H882        C895   1.081       .  S
C883        O897   1.233       .  S
C883        O898   1.267       .  A
C883        H908   1.081       .  S
O884        C907   1.268       .  A
O885       Mg899   2.179       .  S
O886       Mg916   2.221       .  S
C887        O900   1.266       .  A
C887        O892   1.292       .  A
C887        C923   1.487       .  S
C888        C931   1.490       .  S
Mg889       O896   2.130       .  S
Mg889       O897   2.152       .  S
Mg889       O890   2.228       .  S
Mg889       O891   2.327       .  S
Mg889       O918   2.251       .  S
O891        C895   1.278       .  A
O892       Mg899   2.422       .  S
O893        C912   1.256       .  A
O894        C914   1.289       .  A
O894       Mg910   2.403       .  S
O896       Mg910   2.204       .  S
O896        C907   1.235       .  S
O897       Mg916   2.161       .  S
O898       Mg910   2.299       .  S
Mg899       O915   2.368       .  S
O900       Mg916   2.219       .  S
H901        C906   1.082       .  S
O902       Mg910   2.138       .  S
O902        C905   1.241       .  S
H903        C905   1.082       .  S
H904        C907   1.081       .  S
O909       Mg916   2.288       .  S
C912        O917   1.257   1_565  A
C912       C1091   1.421       .  S
O913        C914   1.267       .  A
C914       C1058   1.484       .  S
C919        C920   1.411       .  A
C919        C924   1.415       .  A
C920        C921   1.405       .  A
C921        H926   1.085       .  S
C921        C922   1.402       .  A
C922       C2056   1.479       .  S
C922        C923   1.417       .  A
C923        C924   1.412       .  A
C924        H925   1.084       .  S
C927        C928   1.416       .  A
C927        C932   1.409       .  A
C928        C929   1.417       .  A
C929        H934   1.085       .  S
C929        C930   1.415       .  A
C930       C2116   1.484       .  S
C930        C931   1.416       .  A
C931        C932   1.409       .  A
C932        H933   1.086       .  S
O935       Mg943   2.152       .  S
O935        C970   1.228       .  S
C936        O949   1.237       .  S
C936        O973   1.269       .  A
C936        H975   1.082       .  S
Mg937       O981   2.204   1_545  S
Mg937       O977   2.204   1_545  S
O938       Mg980   2.138       .  S
O938       Mg963   2.137       .  S
O938        C959   1.241       .  S
O939        C970   1.263       .  A
O939       Mg963   2.296       .  S
C940        O942   1.280       .  A
C940       O2070   1.277       .  A
C940       C2038   1.479       .  S
O941        C969   1.278       .  A
O941       Mg943   2.335       .  S
O942       Mg974   2.294       .  S
Mg943       O949   2.146       .  S
Mg943       O945   2.306       .  S
C944        O982   1.265       .  A
C944        O950   1.249       .  A
C944       C1088   1.426       .  S
O945        C952   1.276       .  A
H946        C959   1.081       .  S
C947        O961   1.228       .  S
C947        O962   1.263       .  A
C947        H972   1.081       .  S
O948        C971   1.270       .  A
O949       Mg963   2.204       .  S
O950      Mg2096   2.204   1_455  S
C951        O964   1.261       .  A
C951        O956   1.282       .  A
C951       C1042   1.483       .  S
C952        O979   1.280       .  A
C952       C1059   1.474       .  S
Mg953      O2076   2.142   1_455  S
Mg953      O2077   2.152   1_455  S
Mg953       O954   2.315       .  S
Mg953      O2071   2.336   1_455  S
Mg953       O982   2.287       .  S
O954       C2056   1.277       .  A
O955        C959   1.278       .  A
O955      Mg2069   2.336       .  S
O956       Mg963   2.373       .  S
O957        C976   1.266       .  A
O958       Mg974   2.363       .  S
O960      Mg2069   2.142       .  S
O960       Mg974   2.198       .  S
O960        C971   1.237       .  S
O961      Mg2069   2.152       .  S
O961       Mg980   2.170       .  S
O962       Mg974   2.296       .  S
Mg963       O979   2.291       .  S
O964       Mg980   2.205       .  S
H965        C970   1.081       .  S
O966       Mg974   2.139       .  S
O966        C969   1.241       .  S
H967        C969   1.081       .  S
H968        C971   1.081       .  S
O973       Mg980   2.287       .  S
C976        O981   1.250       .  A
C976       C1085   1.430       .  S
O977        C978   1.261       .  A
C978       C1034   1.478       .  S
Mg980      O2066   2.204       .  S
O983       Mg985   2.157       .  S
O983      Mg2107   2.146       .  S
O983       C1018   1.231       .  S
C984        O997   1.239       .  S
C984       O1021   1.272       .  A
C984       H1023   1.081       .  S
Mg985      O1014   2.138       .  S
Mg985      O2145   2.260       .  S
Mg985      O1025   2.210       .  S
Mg985       O996   2.294       .  S
O986      Mg1028   2.136       .  S
O986      Mg1011   2.161       .  S
O986       C1007   1.241       .  S
O987       C1018   1.264       .  A
O987      Mg1011   2.294       .  S
C988        O990   1.283       .  A
C988       O1002   1.278       .  A
C988       C1051   1.497       .  S
O989       C1017   1.279       .  A
O989      Mg2107   2.337       .  S
O990      Mg1022   2.339       .  S
Mg991      O2099   2.146   1_455  S
Mg991      O2113   2.129   1_455  S
Mg991      O2105   2.337   1_455  S
Mg991      O1005   2.259       .  S
Mg991       O993   2.315       .  S
C992       O1030   1.265       .  A
C992        O998   1.261       .  A
C992       C1083   1.422       .  S
O993       C2116   1.276       .  A
H994       C1007   1.081       .  S
C995       O1009   1.230       .  S
C995       O1010   1.264       .  A
C995       H1020   1.081       .  S
O996       C1019   1.272       .  A
O997      Mg2107   2.129       .  S
O997      Mg1011   2.189       .  S
O998      Mg1028   2.256       .  S
C999       O1012   1.266       .  A
C999       O1004   1.278       .  A
C999       C1035   1.473       .  S
C1000      O2109   1.276       .  A
C1000      O1027   1.279       .  A
C1000      C2046   1.484       .  S
Mg1001     O1008   2.134       .  S
Mg1001     O1009   2.153       .  S
Mg1001     O1002   2.330       .  S
Mg1001     O1003   2.332       .  S
Mg1001     O1030   2.258       .  S
O1003      C1007   1.278       .  A
O1004     Mg1011   2.342       .  S
O1005      C1024   1.264       .  A
O1006      C1026   1.279       .  A
O1006     Mg1022   2.346       .  S
O1008     Mg1022   2.188       .  S
O1008      C1019   1.238       .  S
O1009     Mg1028   2.164       .  S
O1010     Mg1022   2.290       .  S
Mg1011     O1027   2.312       .  S
O1012     Mg1028   2.232       .  S
H1013      C1018   1.081       .  S
O1014     Mg1022   2.177       .  S
O1014      C1017   1.241       .  S
H1015      C1017   1.081       .  S
H1016      C1019   1.081       .  S
O1021     Mg1028   2.293       .  S
C1024      O1029   1.261       .  A
C1024      C1082   1.424       .  S
O1025      C1026   1.264       .  A
C1026      C1043   1.469       .  S
O1029     Mg2101   2.260   1_455  S
C1031      C1032   1.419       .  A
C1031      C1036   1.403       .  A
C1032      C1033   1.412       .  A
C1033      H1038   1.084       .  S
C1033      C1034   1.414       .  A
C1034      C1035   1.411       .  A
C1035      C1036   1.404       .  A
C1036      H1037   1.085       .  S
C1039      C1040   1.415       .  A
C1039      C2160   1.406   1_455  A
C1040      C2157   1.413   1_455  A
C1041      H1046   1.085       .  S
C1041      C2156   1.413       .  A
C1041      C1042   1.410       .  A
C1042      C1043   1.409       .  A
C1043      C1044   1.410       .  A
C1044      H1045   1.085       .  S
C1044      C2155   1.406       .  A
C1047      C1048   1.420       .  A
C1047      C1052   1.418       .  A
C1048      C1049   1.406       .  A
C1049      H1054   1.085       .  S
C1049      C1050   1.420       .  A
C1050      C1051   1.419       .  A
C1051      C1052   1.407       .  A
C1052      H1053   1.085       .  S
C1055      C1056   1.419       .  A
C1057      H1062   1.086       .  S
C1057      C1058   1.400       .  A
C1058      C1059   1.418       .  A
C1059      C1060   1.407       .  A
C1060      H1061   1.085       .  S
C1063      C1103   1.445       .  S
C1063      C1068   1.406       .  A
C1064      C1096   1.437       .  S
C1064      C2181   1.402   1_455  A
C1065      C1100   1.441       .  S
C1065      C2180   1.402       .  A
C1066      C2183   1.401   1_554  A
C1067      C2210   1.437       .  S
C1067      C2182   1.401   1_556  A
C1067      C1068   1.402   1_655  A
C1068      C1098   1.440       .  S
C1069      C1116   1.443       .  S
C1069      C1070   1.403       .  A
C1069      C1074   1.406       .  A
C1070      C1105   1.452       .  S
C1070      C1071   1.405       .  A
C1071      C1109   1.443       .  S
C1071      C1072   1.407       .  A
C1072      C1114   1.443       .  S
C1072      C1073   1.404       .  A
C1073      C1107   1.452       .  S
C1073      C1074   1.405       .  A
C1074      C1112   1.441       .  S
C1075      C1084   1.439       .  S
C1075      C1076   1.404       .  A
C1075      C1080   1.402       .  A
C1076      C1086   1.441       .  S
C1076      C1077   1.407       .  A
C1077      C1092   1.444       .  S
C1077      C1078   1.400       .  A
C1078      C1081   1.441       .  S
C1078      C1079   1.402       .  A
C1079      C1087   1.439       .  S
C1079      C1080   1.407       .  A
C1080      C1089   1.447       .  S
C1081      C1082   1.201       .  T
C1083      C1084   1.200       .  T
C1085      C1086   1.202       .  T
C1087      C1088   1.200       .  T
C1089      C1090   1.201       .  T
C1091      C1092   1.199       .  T
C1093      C1094   1.199       .  T
C1094      C2183   1.437       .  S
C1095      C1096   1.198       .  T
C1097      C1098   1.201       .  T
C1099      C1100   1.201       .  T
C1101      C1102   1.198       .  T
C1103      C1104   1.199       .  T
C1105      C1106   1.207       .  T
C1107      C1108   1.206       .  T
C1109      C1110   1.202       .  T
C1111      C1112   1.200       .  T
C1113      C1114   1.201       .  T
C1115      C1116   1.201       .  T
O1117     Mg1119   2.165       .  S
O1117     Mg1125   2.155       .  S
O1117      C1152   1.233       .  S
C1118      O1131   1.236       .  S
C1118      O1155   1.269       .  A
C1118      H1157   1.081       .  S
Mg1119     O1148   2.155       .  S
Mg1119     O1163   2.287       .  S
Mg1119     O1159   2.248       .  S
Mg1119     O1130   2.286       .  S
O1120     Mg1162   2.155       .  S
O1120     Mg1145   2.177       .  S
O1120      C1141   1.240       .  S
O1121      C1152   1.267       .  A
O1121     Mg1145   2.300       .  S
C1122      O1124   1.282       .  A
O1123      C1151   1.274       .  A
O1123     Mg1125   2.312       .  S
O1124     Mg1156   2.342       .  S
Mg1125     O1131   2.137       .  S
Mg1125     O1139   2.222       .  S
Mg1125     O1127   2.280       .  S
C1126      O1164   1.260       .  A
C1126      O1132   1.267       .  A
C1126      C1673   1.423       .  S
O1127      C1134   1.270       .  A
H1128      C1141   1.081       .  S
C1129      O1143   1.233       .  S
C1129      O1144   1.267       .  A
C1129      H1154   1.081       .  S
O1130      C1153   1.268       .  A
O1131     Mg1145   2.184       .  S
C1133      O1146   1.267       .  A
C1133      O1138   1.287       .  A
C1133      C1598   1.481       .  S
C1134      O1161   1.286       .  A
C1134      C1606   1.496       .  S
Mg1135     O1142   2.120       .  S
Mg1135     O1143   2.149       .  S
Mg1135     O1137   2.324       .  S
O1137      C1141   1.277       .  A
O1138     Mg1145   2.389       .  S
O1139      C1158   1.262       .  A
O1140      C1160   1.283       .  A
O1140     Mg1156   2.356       .  S
O1142     Mg1156   2.183       .  S
O1142      C1153   1.235       .  S
O1143     Mg1162   2.156       .  S
O1144     Mg1156   2.297       .  S
Mg1145     O1161   2.367       .  S
O1146     Mg1162   2.224       .  S
H1147      C1152   1.081       .  S
O1148     Mg1156   2.163       .  S
O1148      C1151   1.239       .  S
H1149      C1151   1.081       .  S
H1150      C1153   1.081       .  S
O1155     Mg1162   2.292       .  S
C1158      O1163   1.269       .  A
C1158      C1671   1.423       .  S
O1159      C1160   1.270       .  A
C1160      C1165   1.478       .  S
C1165      C1166   1.416       .  A
C1165      C1170   1.407       .  A
C1166      C1782   1.477       .  S
C1166      C1167   1.408       .  A
C1167      H1172   1.085       .  S
C1167      C1168   1.409       .  A
C1168      C1328   1.479       .  S
C1168      C1169   1.419       .  A
C1169      C1350   1.485       .  S
C1169      C1170   1.403       .  A
C1170      H1171   1.085       .  S
C1173      C1174   1.420       .  A
C1173      C1178   1.418       .  A
C1174      C1234   1.495       .  S
C1174      C1175   1.407       .  A
C1175      H1180   1.086       .  S
C1175      C1176   1.405       .  A
C1176      C1290   1.486       .  S
C1176      C1177   1.417       .  A
C1177      C1386   1.485       .  S
C1177      C1178   1.418       .  A
C1178      H1179   1.085       .  S
O1181     Mg1183   2.164       .  S
O1181     Mg1189   2.126       .  S
O1181      C1216   1.235       .  S
C1182      O1195   1.237       .  S
C1182      O1219   1.270       .  A
C1182      H1221   1.081       .  S
Mg1183     O1212   2.136       .  S
Mg1183     O1785   2.259       .  S
Mg1183     O1781   2.221       .  S
Mg1183     O1194   2.291       .  S
O1184     Mg1226   2.128       .  S
O1184     Mg1209   2.142       .  S
O1184      C1205   1.241       .  S
O1185      C1216   1.270       .  A
O1185     Mg1209   2.309       .  S
C1186      O1200   1.274       .  A
C1186      C1278   1.482       .  S
O1187      C1215   1.277       .  A
O1187     Mg1189   2.328       .  S
O1188     Mg1220   2.323       .  S
Mg1189     O1195   2.138       .  S
Mg1189     O1761   2.272       .  S
Mg1189     O1191   2.291       .  S
C1190      O1228   1.264       .  A
C1190      O1196   1.258   1_655  A
C1190      C1669   1.423       .  S
O1191      C1198   1.274       .  A
H1192      C1205   1.081       .  S
C1193      O1207   1.234       .  S
C1193      O1208   1.269       .  A
C1193      H1218   1.081       .  S
O1194      C1217   1.270       .  A
O1195     Mg1209   2.179       .  S
C1197      O1210   1.264       .  A
C1197      O1202   1.285       .  A
C1197      C1597   1.479       .  S
C1198      O1225   1.280       .  A
C1198      C1614   1.478       .  S
Mg1199     O1206   2.132       .  S
Mg1199     O1207   2.126       .  S
Mg1199     O1201   2.330       .  S
O1201      C1205   1.277       .  A
O1202     Mg1209   2.391       .  S
O1203      C1222   1.265       .  A
O1203     Mg1747   2.272   1_545  S
O1204      C1224   1.284       .  A
O1204     Mg1220   2.378       .  S
O1206     Mg1220   2.180       .  S
O1206      C1217   1.237       .  S
O1207     Mg1226   2.162       .  S
O1208     Mg1220   2.308       .  S
Mg1209     O1225   2.313       .  S
O1210     Mg1226   2.216       .  S
H1211      C1216   1.081       .  S
O1212     Mg1220   2.149       .  S
O1212      C1215   1.241       .  S
H1213      C1215   1.081       .  S
H1214      C1217   1.081       .  S
O1219     Mg1226   2.294       .  S
C1222      O1227   1.259       .  A
C1222      C1668   1.426       .  S
O1223      C1782   1.265       .  A
O1223     Mg1741   2.221   1_545  S
C1224      O1781   1.265       .  A
C1224      C1724   1.477       .  S
O1227     Mg1741   2.259   1_545  S
O1229     Mg1231   2.159       .  S
O1229     Mg1237   2.129       .  S
O1229      C1264   1.233       .  S
C1230      O1243   1.236       .  S
C1230      O1267   1.269       .  A
C1230      H1269   1.081       .  S
Mg1231     O1260   2.135       .  S
Mg1231     O1275   2.265       .  S
Mg1231     O1271   2.206       .  S
Mg1231     O1242   2.295       .  S
O1232     Mg1274   2.137       .  S
O1232     Mg1257   2.154       .  S
O1232      C1253   1.240       .  S
O1233      C1264   1.268       .  A
O1233     Mg1257   2.300       .  S
C1234      O1794   1.285   1_545  A
C1234      O1248   1.274       .  A
O1235      C1263   1.277       .  A
O1235     Mg1237   2.327       .  S
O1236      C1792   1.285       .  A
O1236     Mg1268   2.359       .  S
Mg1237     O1243   2.142       .  S
Mg1237     O1251   2.279       .  S
Mg1237     O1239   2.274       .  S
C1238      O1276   1.266       .  A
C1238      O1244   1.261   1_545  A
C1238      C1664   1.435       .  S
O1239      C1246   1.272       .  A
H1240      C1253   1.081       .  S
C1241      O1255   1.234       .  S
C1241      O1256   1.270       .  A
C1241      H1824   1.081       .  S
O1242      C1265   1.271       .  A
O1243     Mg1257   2.195       .  S
O1244     Mg1832   2.265       .  S
C1245      O1258   1.266       .  A
C1245      O1250   1.285       .  A
C1245      C1613   1.477       .  S
C1246      O1273   1.281       .  A
C1246      C1605   1.485       .  S
Mg1247     O1254   2.156       .  S
Mg1247     O1255   2.128       .  S
Mg1247     O1806   2.282       .  S
Mg1247     O1249   2.329       .  S
Mg1247     O1834   2.286       .  S
O1248     Mg1805   2.282   1_545  S
O1249      C1253   1.277       .  A
O1250     Mg1257   2.382       .  S
O1251      C1270   1.265       .  A
O1252      C1272   1.292       .  A
O1252     Mg1268   2.429       .  S
O1254     Mg1268   2.194       .  S
O1254      C1265   1.237       .  S
O1255     Mg1274   2.171       .  S
O1256     Mg1268   2.312       .  S
Mg1257     O1273   2.333       .  S
O1258     Mg1274   2.223       .  S
H1259      C1264   1.081       .  S
O1260     Mg1268   2.154       .  S
O1260      C1263   1.240       .  S
H1261      C1263   1.081       .  S
H1262      C1265   1.081       .  S
H1266      C1799   1.081       .  S
O1267     Mg1274   2.291       .  S
C1270      O1275   1.260       .  A
C1270      C1666   1.434       .  S
O1271      C1272   1.263       .  A
C1272      C1277   1.487       .  S
Mg1274     O1802   2.265       .  S
O1276     Mg1805   2.286   1_545  S
C1277      C1278   1.419       .  A
C1277      C1282   1.417       .  A
C1278      C1279   1.407       .  A
C1279      H1284   1.086       .  S
C1279      C1280   1.401       .  A
C1280      C1424   1.477       .  S
C1280      C1281   1.408       .  A
C1281      C1349   1.476       .  S
C1281      C1282   1.418       .  A
C1282      H1283   1.085       .  S
O1285     Mg1287   2.169   1_556  S
O1285     Mg1293   2.149       .  S
O1285      C1320   1.234       .  S
C1286      O1857   1.235   1_545  S
C1286      O1323   1.268       .  A
C1286      H1325   1.081       .  S
Mg1287     O1874   2.138       .  S
Mg1287     O1889   2.224   1_554  S
Mg1287     O1885   2.224       .  S
Mg1287     O1298   2.288       .  S
O1288     Mg1888   2.141       .  S
O1288     Mg1313   2.150       .  S
O1288      C1309   1.242       .  S
O1289      C1320   1.269       .  A
O1289     Mg1313   2.306       .  S
C1290      O1292   1.283       .  A
C1290      O1304   1.268       .  A
O1291      C1319   1.277       .  A
O1291     Mg1851   2.324       .  S
O1292     Mg1324   2.350       .  S
Mg1293     O1299   2.130       .  S
Mg1293     O1849   2.324       .  S
Mg1293     O1865   2.244       .  S
Mg1293     O1295   2.234       .  S
C1294      O1332   1.257       .  A
C1294      O1300   1.257       .  A
C1294      C1660   1.420       .  S
O1295      C1302   1.265       .  A
H1296      C1309   1.082       .  S
C1297      O1311   1.234       .  S
C1297      O1312   1.269       .  A
C1297      H1322   1.082   1_554  S
O1298      C1321   1.269       .  A
O1299     Mg1313   2.196       .  S
O1299      C1844   1.235       .  S
O1300     Mg1888   2.227   1_554  S
C1301      O1314   1.267       .  A
C1301      O1306   1.292       .  A
C1301      C1590   1.489       .  S
C1302      O1329   1.287       .  A
C1302      C1485   1.494       .  S
Mg1303     O1310   2.124   1_565  S
Mg1303     O1311   2.147   1_565  S
Mg1303     O1304   2.255   1_565  S
Mg1303     O1863   2.332       .  S
Mg1303     O1890   2.243       .  S
O1305      C1309   1.278   1_554  A
O1305     Mg1861   2.332       .  S
O1306     Mg1313   2.424       .  S
O1307      C1326   1.257       .  A
O1307     Mg1851   2.244       .  S
O1308      C1328   1.287       .  A
O1308     Mg1324   2.391       .  S
O1310     Mg1324   2.187       .  S
O1310      C1879   1.236   1_545  S
O1311     Mg1330   2.174   1_544  S
O1312     Mg1324   2.307       .  S
Mg1313     O1329   2.381       .  S
O1314     Mg1888   2.228       .  S
H1315      C1320   1.081   1_554  S
O1316     Mg1845   2.138       .  S
O1316     Mg1324   2.139       .  S
O1316      C1319   1.241   1_554  S
H1317      C1319   1.082   1_554  S
H1318      C1321   1.081       .  S
C1321      O1868   1.236       .  S
O1323     Mg1330   2.287   1_545  S
C1326      O1331   1.257       .  A
C1326      C1662   1.421       .  S
O1327      C1328   1.266       .  A
O1327     Mg1845   2.224       .  S
Mg1330     O1846   2.141       .  S
Mg1330     O1858   2.227   1_556  S
Mg1330     O1872   2.228       .  S
O1331     Mg1845   2.224   1_556  S
O1332     Mg1861   2.243       .  S
O1333     Mg1335   2.170   1_554  S
O1333     Mg1341   2.152       .  S
O1333      C1368   1.228       .  S
C1334      O1347   1.238       .  S
C1334      O1371   1.270       .  A
C1334      H1373   1.081       .  S
Mg1335     O1364   2.138       .  S
Mg1335     O1379   2.205       .  S
Mg1335     O1375   2.204       .  S
Mg1335     O1346   2.288       .  S
O1336     Mg1378   2.142       .  S
O1336     Mg1361   2.148       .  S
O1336      C1357   1.240       .  S
O1337      C1368   1.262       .  A
O1337     Mg1361   2.293       .  S
C1338      O1340   1.280       .  A
C1338      O1352   1.278       .  A
C1338      C1589   1.479       .  S
O1339      C1367   1.279       .  A
O1339     Mg1341   2.341   1_556  S
O1340     Mg1372   2.296       .  S
Mg1341     O1347   2.141       .  S
Mg1341     O1355   2.290       .  S
Mg1341     O1343   2.327       .  S
C1342      O1380   1.266   1_554  A
C1342      O1348   1.251       .  A
C1342      C1657   1.429       .  S
O1343      C1350   1.279       .  A
H1344      C1357   1.081       .  S
C1345      O1359   1.228       .  S
C1345      O1360   1.262       .  A
C1345      H1370   1.081       .  S
O1346      C1369   1.270       .  A
O1347     Mg1361   2.202       .  S
O1348     Mg1378   2.214       .  S
C1349      O1362   1.260       .  A
C1349      O1354   1.282       .  A
C1350      O1377   1.282       .  A
Mg1351     O1358   2.141       .  S
Mg1351     O1359   2.152       .  S
Mg1351     O1352   2.319       .  S
Mg1351     O1353   2.335   1_556  S
Mg1351     O1380   2.290       .  S
O1353      C1357   1.278       .  A
O1354     Mg1361   2.365       .  S
O1355      C1374   1.266   1_554  A
O1356      C1376   1.281       .  A
O1356     Mg1372   2.365       .  S
O1358     Mg1372   2.199       .  S
O1358      C1369   1.237       .  S
O1359     Mg1378   2.166   1_556  S
O1360     Mg1372   2.295       .  S
Mg1361     O1377   2.309       .  S
O1362     Mg1378   2.191       .  S
H1363      C1368   1.081       .  S
O1364     Mg1372   2.146       .  S
O1364      C1367   1.242       .  S
H1365      C1367   1.081       .  S
H1366      C1369   1.081       .  S
O1371     Mg1378   2.286       .  S
C1374      O1379   1.249       .  A
C1374      C1655   1.428       .  S
O1375      C1376   1.261       .  A
C1376      C1477   1.479       .  S
O1381     Mg1383   2.160   1_456  S
O1381      C1416   1.230   1_455  S
C1382      O1395   1.238       .  S
C1382      O1419   1.271       .  A
C1382      H1421   1.081       .  S
Mg1383     O1427   2.254   1_655  S
Mg1383     O1423   2.223       .  S
Mg1383     O1394   2.294       .  S
O1384      C1405   1.241       .  S
O1385      C1416   1.264       .  A
C1386      O1388   1.280       .  A
C1386      O1400   1.277       .  A
O1387      C1415   1.279       .  A
O1387     Mg1389   2.335   1_554  S
O1388     Mg1420   2.314       .  S
Mg1389     O1395   2.128       .  S
Mg1389     O1403   2.256       .  S
Mg1389     O1391   2.321       .  S
C1390      O1428   1.265   1_556  A
C1390      C1651   1.421       .  S
O1391      C1398   1.277       .  A
H1392      C1405   1.081       .  S
C1393      O1407   1.231       .  S
C1393      O1408   1.265       .  A
C1393      H1418   1.081       .  S
O1394      C1417   1.271       .  A
O1395     Mg1409   2.187       .  S
O1396     Mg1426   2.253       .  S
C1397      O1410   1.266       .  A
C1397      O1402   1.278       .  A
C1397      C1478   1.472       .  S
C1398      O1425   1.278       .  A
C1398      C1486   1.481       .  S
Mg1399     O1406   2.135       .  S
Mg1399     O1400   2.323       .  S
Mg1399     O1401   2.332   1_554  S
Mg1399     O1428   2.258       .  S
O1401      C1405   1.278       .  A
O1402     Mg1409   2.341       .  S
O1403      C1422   1.264   1_556  A
O1404      C1424   1.281       .  A
O1404     Mg1420   2.360       .  S
O1406     Mg1420   2.184       .  S
O1406      C1417   1.238       .  S
O1407     Mg1426   2.163   1_554  S
Mg1409     O1425   2.300       .  S
O1410     Mg1426   2.228       .  S
H1411      C1416   1.081       .  S
O1412      C1415   1.242       .  S
H1413      C1415   1.081       .  S
H1414      C1417   1.081       .  S
O1419     Mg1426   2.291       .  S
C1422      C1653   1.421       .  S
O1423      C1424   1.265       .  A
O1429     Mg1431   2.176       .  S
O1429     Mg1437   2.147       .  S
O1429      C1464   1.235   1_545  S
C1430      O1443   1.235       .  S
C1430      O1467   1.269       .  A
C1430      H1469   1.081       .  S
Mg1431     O1460   2.137       .  S
Mg1431     O2033   2.226       .  S
Mg1431     O1471   2.227       .  S
Mg1431     O1442   2.288       .  S
O1432     Mg1474   2.140       .  S
O1432     Mg1457   2.144       .  S
O1432      C1453   1.242       .  S
O1433      C1464   1.271   1_545  A
O1433     Mg1457   2.317       .  S
C1434      O1436   1.283       .  A
C1434      O1448   1.265       .  A
C1434      C1608   1.484       .  S
O1435      C1463   1.277       .  A
O1435     Mg1437   2.325       .  S
O1436     Mg1468   2.351       .  S
Mg1437     O1443   2.127       .  S
Mg1437     O2009   2.241   1_545  S
Mg1437     O1997   2.240   1_545  S
C1438      O1476   1.258       .  A
C1438      O1444   1.258       .  A
C1438      C1648   1.424       .  S
O1439      C1446   1.265       .  A
O1439     Mg1995   2.240       .  S
H1440      C1453   1.081       .  S
C1441      O1455   1.233       .  S
C1441      O1456   1.267       .  A
C1441      H1466   1.081       .  S
O1442      C1465   1.268       .  A
O1443     Mg1457   2.179       .  S
O1444     Mg1474   2.221       .  S
C1445      O1458   1.266       .  A
C1445      O1450   1.292       .  A
C1445      C1481   1.487       .  S
C1446      O2031   1.285       .  A
C1446      C1489   1.490       .  S
Mg1447     O1454   2.130       .  S
Mg1447     O1455   2.152       .  S
Mg1447     O1448   2.228       .  S
Mg1447     O1449   2.327       .  S
Mg1447     O1476   2.251       .  S
O1449      C1453   1.278       .  A
O1450     Mg1457   2.422       .  S
O1451      C1470   1.256       .  A
O1451     Mg1995   2.241       .  S
O1452      C1472   1.289       .  A
O1452     Mg1468   2.403       .  S
O1454     Mg1468   2.204       .  S
O1454      C1465   1.235       .  S
O1455     Mg1474   2.161       .  S
O1456     Mg1468   2.299       .  S
Mg1457     O1473   2.368       .  S
O1458     Mg1474   2.219       .  S
H1459      C1464   1.082       .  S
O1460     Mg1468   2.138       .  S
O1460      C1463   1.241       .  S
H1461      C1463   1.082       .  S
H1462      C1465   1.081       .  S
O1467     Mg1474   2.288       .  S
C1470      O1475   1.257       .  A
C1470      C1649   1.421       .  S
O1471      C1472   1.267       .  A
C1472      C1616   1.484       .  S
O1473      C2004   1.285   1_545  A
O1475     Mg1989   2.226       .  S
C1477      C1478   1.411       .  A
C1477      C1482   1.415       .  A
C1478      C1479   1.405       .  A
C1479      H1484   1.085       .  S
C1479      C1480   1.402       .  A
C1480      C1481   1.417       .  A
C1481      C1482   1.412       .  A
C1482      H1483   1.084       .  S
C1485      C1486   1.416       .  A
C1485      C1490   1.409       .  A
C1486      C1487   1.417       .  A
C1487      H1492   1.085       .  S
C1487      C1488   1.415       .  A
C1488      C1489   1.416       .  A
C1489      C1490   1.409       .  A
C1490      H1491   1.086       .  S
O1493     Mg2053   2.168       .  S
O1493     Mg1501   2.152       .  S
O1493      C1528   1.228       .  S
C1494      O1507   1.237       .  S
C1494      O1531   1.269       .  A
C1494      H1533   1.082       .  S
Mg1495     O2051   2.168       .  S
Mg1495     O2082   2.137       .  S
Mg1495     O1539   2.204       .  S
Mg1495     O1535   2.204       .  S
Mg1495     O2064   2.287       .  S
O1496     Mg1538   2.138       .  S
O1496     Mg1521   2.137       .  S
O1496      C1517   1.241       .  S
O1497      C1528   1.263       .  A
O1497     Mg1521   2.296       .  S
C1498      O1500   1.280   1_455  A
O1499      C1527   1.278       .  A
O1499     Mg1501   2.335       .  S
O1500     Mg1532   2.294       .  S
Mg1501     O1507   2.146       .  S
Mg1501     O2073   2.293   1_545  S
Mg1501     O1503   2.306       .  S
C1502      O1540   1.265       .  A
C1502      O1508   1.249       .  A
C1502      C1646   1.426       .  S
O1503      C1510   1.276       .  A
H1504      C1517   1.081       .  S
C1505      O1519   1.228       .  S
C1505      O1520   1.263       .  A
C1505      H1530   1.081       .  S
O1506      C1529   1.270       .  A
O1506     Mg2053   2.287       .  S
O1507     Mg1521   2.204       .  S
C1509      O1522   1.261       .  A
C1509      O1514   1.282       .  A
C1509      C1600   1.483       .  S
C1510      O1537   1.280       .  A
C1510      C1617   1.474       .  S
Mg1511     O1512   2.315       .  S
Mg1511     O1540   2.287       .  S
O1513      C1517   1.278       .  A
O1514     Mg1521   2.373       .  S
O1515      C1534   1.266       .  A
O1515     Mg2059   2.293       .  S
O1516      C2094   1.281   1_545  A
O1516     Mg1532   2.363       .  S
O1518     Mg1532   2.198       .  S
O1518      C1529   1.237       .  S
O1519     Mg1538   2.170       .  S
O1520     Mg1532   2.296       .  S
Mg1521     O1537   2.291       .  S
O1522     Mg1538   2.205       .  S
H1523      C1528   1.081   1_565  S
O1524     Mg2053   2.137       .  S
O1524     Mg1532   2.139       .  S
O1524      C1527   1.241       .  S
H1525      C1527   1.081       .  S
H1526      C1529   1.081       .  S
O1531     Mg1538   2.287       .  S
C1534      O1539   1.250       .  A
C1534      C1643   1.430       .  S
O1535      C1536   1.261       .  A
C1536      O2074   1.281       .  A
C1536      C1592   1.478       .  S
O1541     Mg1543   2.157       .  S
O1541      C1576   1.231       .  S
C1542      O1555   1.239       .  S
C1542      O1579   1.271       .  A
C1542      H1581   1.081       .  S
Mg1543     O1572   2.138       .  S
Mg1543     O1583   2.210       .  S
Mg1543     O1554   2.294       .  S
O1544     Mg1586   2.136       .  S
O1544     Mg1569   2.161       .  S
O1544      C1565   1.241       .  S
O1545      C1576   1.264       .  A
O1545     Mg1569   2.294       .  S
C1546      O1548   1.283       .  A
C1546      O1560   1.278       .  A
C1546      C1609   1.497       .  S
O1547      C1575   1.279       .  A
O1548     Mg1580   2.339       .  S
Mg1549     O1563   2.259       .  S
Mg1549     O1551   2.315       .  S
C1550      O1588   1.265       .  A
C1550      O1556   1.261       .  A
C1550      C1641   1.422       .  S
H1552      C1565   1.081       .  S
C1553      O1567   1.230       .  S
C1553      O1568   1.264       .  A
C1553      H1578   1.081       .  S
O1554      C1577   1.272       .  A
O1555     Mg1569   2.189       .  S
O1556     Mg1586   2.256       .  S
C1557      O1570   1.266       .  A
C1557      O1562   1.278       .  A
C1557      C1593   1.473       .  S
C1558      O1585   1.279   1_455  A
Mg1559     O1566   2.134       .  S
Mg1559     O1567   2.153       .  S
Mg1559     O1560   2.330       .  S
Mg1559     O1561   2.332       .  S
Mg1559     O1588   2.258       .  S
O1561      C1565   1.278       .  A
O1562     Mg1569   2.342       .  S
O1563      C1582   1.264       .  A
O1564      C1584   1.279       .  A
O1564     Mg1580   2.346       .  S
O1566     Mg1580   2.189       .  S
O1566      C1577   1.238       .  S
O1567     Mg1586   2.164       .  S
O1568     Mg1580   2.290       .  S
Mg1569     O1585   2.312       .  S
O1570     Mg1586   2.232       .  S
H1571      C1576   1.081       .  S
O1572     Mg1580   2.177       .  S
O1572      C1575   1.241       .  S
H1573      C1575   1.081       .  S
H1574      C1577   1.081       .  S
O1579     Mg1586   2.293       .  S
C1582      O1587   1.261       .  A
C1582      C1640   1.424       .  S
O1583      C1584   1.264       .  A
C1584      C1601   1.469       .  S
C1589      C1590   1.419       .  A
C1589      C1594   1.403       .  A
C1590      C1591   1.412       .  A
C1591      H1596   1.085       .  S
C1591      C1592   1.414       .  A
C1592      C1593   1.411       .  A
C1593      C1594   1.404       .  A
C1594      H1595   1.085       .  S
C1597      C1598   1.415       .  A
C1599      H1604   1.085       .  S
C1599      C1600   1.410       .  A
C1600      C1601   1.409       .  A
C1601      C1602   1.410       .  A
C1602      H1603   1.085   1_655  S
C1605      C1606   1.420       .  A
C1605      C1610   1.418       .  A
C1606      C1607   1.406       .  A
C1607      H1612   1.085       .  S
C1607      C1608   1.420       .  A
C1608      C1609   1.419       .  A
C1609      C1610   1.407       .  A
C1610      H1611   1.085       .  S
C1613      C1614   1.419       .  A
C1613      C2176   1.407       .  A
C1614      C2173   1.408       .  A
C1615      H1620   1.085       .  S
C1615      C2172   1.408       .  A
C1615      C1616   1.400   1_565  A
C1616      C1617   1.418       .  A
C1617      C1618   1.407   1_545  A
C1618      H1619   1.085       .  S
C1618      C2171   1.407       .  A
C1621      C1661   1.445       .  S
C1621      C2180   1.401   1_546  A
C1621      C1626   1.406       .  A
C1622      C1654   1.437       .  S
C1622      C2179   1.401   1_554  A
C1623      C1658   1.441       .  S
C1623      C2182   1.405       .  A
C1624      C2217   1.444       .  S
C1624      C2181   1.405       .  A
C1625      C1626   1.402       .  A
C1626      C1656   1.440       .  S
C1627      C1674   1.443       .  S
C1627      C1628   1.403       .  A
C1627      C1632   1.406       .  A
C1628      C1663   1.452       .  S
C1628      C1629   1.405       .  A
C1629      C1667   1.443       .  S
C1629      C1630   1.407       .  A
C1630      C1672   1.443       .  S
C1630      C1631   1.404       .  A
C1631      C1665   1.452       .  S
C1631      C1632   1.405       .  A
C1632      C1670   1.441       .  S
C1633      C1642   1.439       .  S
C1633      C1634   1.404       .  A
C1633      C1638   1.402       .  A
C1634      C1644   1.441       .  S
C1634      C1635   1.407       .  A
C1635      C1650   1.444       .  S
C1635      C1636   1.400       .  A
C1636      C1639   1.441       .  S
C1636      C1637   1.402       .  A
C1637      C1645   1.439       .  S
C1637      C1638   1.407       .  A
C1638      C1647   1.447       .  S
C1639      C1640   1.201       .  T
C1641      C1642   1.200       .  T
C1643      C1644   1.202       .  T
C1645      C1646   1.200       .  T
C1647      C1648   1.201       .  T
C1649      C1650   1.199       .  T
C1651      C1652   1.199       .  T
C1653      C1654   1.198       .  T
C1655      C1656   1.201       .  T
C1657      C1658   1.201       .  T
C1659      C2182   1.444       .  S
C1659      C1660   1.198       .  T
C1661      C1662   1.199       .  T
C1663      C1664   1.207       .  T
C1665      C1666   1.206       .  T
C1667      C1668   1.202       .  T
C1669      C1670   1.200       .  T
C1671      C1672   1.201       .  T
C1673      C1674   1.201       .  T
O1675     Mg1677   2.165       .  S
O1675     Mg1683   2.155       .  S
O1675      C1710   1.233       .  S
C1676      O1689   1.236       .  S
C1676      O1713   1.269       .  A
C1676      H1715   1.081       .  S
Mg1677     O1706   2.155       .  S
Mg1677     O1721   2.287       .  S
Mg1677     O1717   2.248       .  S
Mg1677     O1688   2.286       .  S
O1678     Mg1720   2.155       .  S
O1678     Mg1703   2.177       .  S
O1678      C1699   1.240       .  S
O1679      C1710   1.267       .  A
O1679     Mg1703   2.300       .  S
C1680      O1682   1.282       .  A
O1681      C1709   1.274       .  A
O1681     Mg1683   2.312       .  S
O1682     Mg1714   2.342       .  S
Mg1683     O1689   2.137       .  S
Mg1683     O1697   2.222       .  S
Mg1683     O1685   2.280       .  S
C1684      O1722   1.260       .  A
C1684      O1690   1.267       .  A
C1684      C2231   1.423       .  S
O1685      C1692   1.270       .  A
H1686      C1699   1.082       .  S
C1687      O1701   1.233       .  S
C1687      O1702   1.267       .  A
C1687      H1712   1.081       .  S
O1688      C1711   1.268       .  A
O1689     Mg1703   2.184       .  S
C1691      O1704   1.267       .  A
C1691      O1696   1.287       .  A
C1691      C2156   1.481       .  S
C1692      O1719   1.286       .  A
C1692      C2164   1.496       .  S
Mg1693     O1700   2.120       .  S
Mg1693     O1701   2.149       .  S
Mg1693     O1695   2.324       .  S
O1695      C1699   1.277       .  A
O1696     Mg1703   2.389       .  S
O1697      C1716   1.262       .  A
O1698      C1718   1.283       .  A
O1698     Mg1714   2.356       .  S
O1700     Mg1714   2.183       .  S
O1700      C1711   1.235       .  S
O1701     Mg1720   2.156       .  S
O1702     Mg1714   2.297       .  S
Mg1703     O1719   2.367       .  S
O1704     Mg1720   2.224       .  S
H1705      C1710   1.081       .  S
O1706     Mg1714   2.163       .  S
O1706      C1709   1.239       .  S
H1707      C1709   1.081       .  S
H1708      C1711   1.081       .  S
O1713     Mg1720   2.292       .  S
C1716      O1721   1.269       .  A
C1716      C2229   1.423       .  S
O1717      C1718   1.270       .  A
C1718      C1723   1.478       .  S
C1723      C1724   1.416       .  A
C1723      C1728   1.407       .  A
C1724      C1725   1.408       .  A
C1725      H1730   1.085       .  S
C1725      C1726   1.409       .  A
C1726      C1886   1.479       .  S
C1726      C1727   1.419       .  A
C1727      C1908   1.485       .  S
C1727      C1728   1.403       .  A
C1728      H1729   1.085       .  S
C1731      C1732   1.420       .  A
C1731      C1736   1.418       .  A
C1732      C1792   1.495       .  S
C1732      C1733   1.407       .  A
C1733      H1738   1.086       .  S
C1733      C1734   1.405       .  A
C1734      C1848   1.486       .  S
C1734      C1735   1.417       .  A
C1735      C1944   1.485       .  S
C1735      C1736   1.418       .  A
C1736      H1737   1.085       .  S
O1739     Mg1741   2.164       .  S
O1739     Mg1747   2.126       .  S
O1739      C1774   1.234       .  S
C1740      O1753   1.237       .  S
C1740      O1777   1.270       .  A
C1740      H1779   1.081       .  S
Mg1741     O1770   2.136       .  S
Mg1741     O1752   2.291       .  S
O1742     Mg1784   2.128       .  S
O1742     Mg1767   2.142       .  S
O1742      C1763   1.241       .  S
O1743      C1774   1.270       .  A
O1743     Mg1767   2.309       .  S
C1744      O1758   1.274       .  A
C1744      C1836   1.482       .  S
O1745      C1773   1.277       .  A
O1745     Mg1747   2.328       .  S
O1746     Mg1778   2.323       .  S
Mg1747     O1753   2.138       .  S
Mg1747     O1749   2.291       .  S
C1748      O1786   1.264       .  A
C1748      O1754   1.258   1_655  A
C1748      C2227   1.423       .  S
O1749      C1756   1.274       .  A
H1750      C1763   1.081       .  S
C1751      O1765   1.234       .  S
C1751      O1766   1.269       .  A
C1751      H1776   1.081       .  S
O1752      C1775   1.270       .  A
O1753     Mg1767   2.179       .  S
C1755      O1768   1.264       .  A
C1755      O1760   1.285       .  A
C1755      C2155   1.479       .  S
C1756      O1783   1.280       .  A
C1756      C2172   1.478       .  S
Mg1757     O1764   2.132       .  S
Mg1757     O1765   2.126       .  S
Mg1757     O1759   2.330       .  S
O1759      C1763   1.277       .  A
O1760     Mg1767   2.391       .  S
O1761      C1780   1.265       .  A
O1762      C1782   1.284   1_565  A
O1762     Mg1778   2.378       .  S
O1764     Mg1778   2.180       .  S
O1764      C1775   1.237       .  S
O1765     Mg1784   2.162       .  S
O1766     Mg1778   2.308       .  S
Mg1767     O1783   2.313       .  S
O1768     Mg1784   2.216       .  S
H1769      C1774   1.081       .  S
O1770     Mg1778   2.149       .  S
O1770      C1773   1.241       .  S
H1771      C1773   1.081       .  S
H1772      C1775   1.081       .  S
O1777     Mg1784   2.294       .  S
C1780      O1785   1.259       .  A
C1780      C2226   1.426       .  S
O1787     Mg1789   2.159       .  S
O1787     Mg1795   2.129       .  S
O1787      C1822   1.233       .  S
C1788      O1801   1.236       .  S
C1788      O1825   1.269       .  A
C1788      H1827   1.081       .  S
Mg1789     O1818   2.135       .  S
Mg1789     O1833   2.265       .  S
Mg1789     O1829   2.206       .  S
Mg1789     O1800   2.295       .  S
O1790     Mg1832   2.137       .  S
O1790     Mg1815   2.154       .  S
O1790      C1811   1.240       .  S
O1791      C1822   1.268       .  A
O1791     Mg1815   2.300       .  S
C1792      O1806   1.274       .  A
O1793      C1821   1.277       .  A
O1793     Mg1795   2.327       .  S
O1794     Mg1826   2.359       .  S
Mg1795     O1801   2.141       .  S
Mg1795     O1809   2.279       .  S
Mg1795     O1797   2.274       .  S
C1796      O1834   1.266       .  A
C1796      O1802   1.261       .  A
C1796      C2222   1.435       .  S
O1797      C1804   1.272       .  A
H1798      C1811   1.081       .  S
C1799      O1813   1.234   1_545  S
C1799      O1814   1.270   1_545  A
O1800      C1823   1.271       .  A
O1801     Mg1815   2.195       .  S
C1803      O1816   1.266       .  A
C1803      O1808   1.285       .  A
C1803      C2171   1.477       .  S
C1804      O1831   1.281       .  A
C1804      C2163   1.485       .  S
Mg1805     O1812   2.156       .  S
Mg1805     O1813   2.128       .  S
Mg1805     O1807   2.329       .  S
O1807      C1811   1.277       .  A
O1808     Mg1815   2.382       .  S
O1809      C1828   1.265       .  A
O1810      C1830   1.292       .  A
O1810     Mg1826   2.429       .  S
O1812     Mg1826   2.194       .  S
O1812      C1823   1.237       .  S
O1813     Mg1832   2.171       .  S
O1814     Mg1826   2.312       .  S
Mg1815     O1831   2.333       .  S
O1816     Mg1832   2.223       .  S
H1817      C1822   1.081       .  S
O1818     Mg1826   2.154       .  S
O1818      C1821   1.240       .  S
H1819      C1821   1.081       .  S
H1820      C1823   1.081       .  S
O1825     Mg1832   2.291       .  S
C1828      O1833   1.260       .  A
C1828      C2224   1.434       .  S
O1829      C1830   1.263       .  A
C1830      C1835   1.487       .  S
C1835      C1836   1.419       .  A
C1835      C1840   1.417       .  A
C1836      C1837   1.407       .  A
C1837      H1842   1.086       .  S
C1837      C1838   1.401       .  A
C1838      C1982   1.477       .  S
C1838      C1839   1.408       .  A
C1839      C1907   1.476       .  S
C1839      C1840   1.418       .  A
C1840      H1841   1.085       .  S
O1843     Mg1845   2.169   1_566  S
O1843     Mg1851   2.149   1_565  S
O1843      C1878   1.234       .  S
C1844      O1881   1.268       .  A
C1844      H1883   1.081       .  S
Mg1845     O1856   2.288   1_545  S
O1846     Mg1871   2.150       .  S
O1846      C1867   1.242       .  S
O1847      C1878   1.269       .  A
O1847     Mg1871   2.306       .  S
C1848      O1850   1.283       .  A
C1848      O1862   1.268       .  A
O1849      C1877   1.277       .  A
O1850     Mg1882   2.350       .  S
Mg1851     O1857   2.130   1_545  S
Mg1851     O1853   2.234   1_545  S
C1852      O1890   1.257       .  A
C1852      O1858   1.257       .  A
C1852      C2218   1.420       .  S
O1853      C1860   1.265       .  A
H1854      C1867   1.082       .  S
C1855      O1869   1.234       .  S
C1855      O1870   1.269       .  A
C1855      H1880   1.082   1_554  S
O1856      C1879   1.269       .  A
O1857     Mg1871   2.196       .  S
C1859      O1872   1.267       .  A
C1859      O1864   1.292       .  A
C1859      C2148   1.489       .  S
C1860      O1887   1.287       .  A
C1860      C2043   1.494       .  S
Mg1861     O1868   2.124       .  S
Mg1861     O1869   2.147       .  S
Mg1861     O1862   2.255       .  S
O1863      C1867   1.278   1_554  A
O1864     Mg1871   2.424       .  S
O1865      C1884   1.257       .  A
O1866      C1886   1.287       .  A
O1866     Mg1882   2.391       .  S
O1868     Mg1882   2.187       .  S
O1869     Mg1888   2.174   1_554  S
O1870     Mg1882   2.308       .  S
Mg1871     O1887   2.381       .  S
H1873      C1878   1.081   1_554  S
O1874     Mg1882   2.139       .  S
O1874      C1877   1.241   1_554  S
H1875      C1877   1.082   1_554  S
H1876      C1879   1.081       .  S
O1881     Mg1888   2.287       .  S
C1884      O1889   1.257       .  A
C1884      C2220   1.421       .  S
O1885      C1886   1.266       .  A
O1891     Mg1893   2.170   1_554  S
O1891     Mg1899   2.152       .  S
O1891      C1926   1.228       .  S
C1892      O1905   1.238       .  S
C1892      O1929   1.270       .  A
C1892      H1931   1.081       .  S
Mg1893     O1922   2.138       .  S
Mg1893     O1937   2.205       .  S
Mg1893     O1933   2.204       .  S
Mg1893     O1904   2.288       .  S
O1894     Mg1936   2.142       .  S
O1894     Mg1919   2.148       .  S
O1894      C1915   1.240       .  S
O1895      C1926   1.262       .  A
O1895     Mg1919   2.293       .  S
C1896      O1898   1.280       .  A
C1896      O1910   1.278       .  A
C1896      C2147   1.479       .  S
O1897      C1925   1.279       .  A
O1897     Mg1899   2.341   1_556  S
O1898     Mg1930   2.296       .  S
Mg1899     O1905   2.141       .  S
Mg1899     O1913   2.290       .  S
Mg1899     O1901   2.327       .  S
C1900      O1938   1.266   1_554  A
C1900      O1906   1.251       .  A
C1900      C2215   1.429       .  S
O1901      C1908   1.279       .  A
H1902      C1915   1.081       .  S
C1903      O1917   1.228       .  S
C1903      O1918   1.262       .  A
C1903      H1928   1.081       .  S
O1904      C1927   1.270       .  A
O1905     Mg1919   2.202       .  S
O1906     Mg1936   2.214       .  S
C1907      O1920   1.260       .  A
C1907      O1912   1.282       .  A
C1908      O1935   1.282       .  A
Mg1909     O1916   2.141       .  S
Mg1909     O1917   2.152       .  S
Mg1909     O1910   2.319       .  S
Mg1909     O1911   2.335   1_556  S
Mg1909     O1938   2.290       .  S
O1911      C1915   1.278       .  A
O1912     Mg1919   2.365       .  S
O1913      C1932   1.266   1_554  A
O1914      C1934   1.281       .  A
O1914     Mg1930   2.365       .  S
O1916     Mg1930   2.199       .  S
O1916      C1927   1.237       .  S
O1917     Mg1936   2.166   1_556  S
O1918     Mg1930   2.295       .  S
Mg1919     O1935   2.309       .  S
O1920     Mg1936   2.191       .  S
H1921      C1926   1.082       .  S
O1922     Mg1930   2.146       .  S
O1922      C1925   1.242       .  S
H1923      C1925   1.081       .  S
H1924      C1927   1.081       .  S
O1929     Mg1936   2.286       .  S
C1932      O1937   1.249       .  A
C1932      C2213   1.428       .  S
O1933      C1934   1.261       .  A
C1934      C2035   1.479       .  S
O1939     Mg1941   2.160   1_456  S
O1939      C1974   1.230   1_455  S
C1940      O1953   1.238       .  S
C1940      O1977   1.271       .  A
C1940      H1979   1.081       .  S
Mg1941     O1985   2.254   1_655  S
Mg1941     O1981   2.223       .  S
Mg1941     O1952   2.294       .  S
O1942      C1963   1.241       .  S
O1943      C1974   1.264       .  A
C1944      O1946   1.280       .  A
C1944      O1958   1.277       .  A
O1945      C1973   1.279       .  A
O1945     Mg1947   2.335   1_554  S
O1946     Mg1978   2.314       .  S
Mg1947     O1953   2.128       .  S
Mg1947     O1961   2.256       .  S
Mg1947     O1949   2.321       .  S
C1948      O1986   1.265   1_556  A
C1948      C2209   1.421       .  S
O1949      C1956   1.277       .  A
H1950      C1963   1.081       .  S
C1951      O1965   1.231       .  S
C1951      O1966   1.265       .  A
C1951      H1976   1.081       .  S
O1952      C1975   1.271       .  A
O1953     Mg1967   2.187       .  S
O1954     Mg1984   2.253       .  S
C1955      O1968   1.266       .  A
C1955      O1960   1.278       .  A
C1955      C2036   1.472       .  S
C1956      O1983   1.278       .  A
C1956      C2044   1.481       .  S
Mg1957     O1964   2.135       .  S
Mg1957     O1958   2.323       .  S
Mg1957     O1959   2.332   1_554  S
Mg1957     O1986   2.258       .  S
O1959      C1963   1.278       .  A
O1960     Mg1967   2.341       .  S
O1961      C1980   1.264   1_556  A
O1962      C1982   1.281       .  A
O1962     Mg1978   2.360       .  S
O1964     Mg1978   2.184       .  S
O1964      C1975   1.238       .  S
O1965     Mg1984   2.163   1_554  S
Mg1967     O1983   2.300       .  S
O1968     Mg1984   2.228       .  S
H1969      C1974   1.081       .  S
O1970      C1973   1.242       .  S
H1971      C1973   1.081       .  S
H1972      C1975   1.081       .  S
O1977     Mg1984   2.291       .  S
C1980      C2211   1.421       .  S
O1981      C1982   1.265       .  A
O1987     Mg1989   2.176       .  S
O1987     Mg1995   2.147       .  S
O1987      C2022   1.235       .  S
C1988      O2001   1.235       .  S
C1988      O2025   1.269       .  A
C1988      H2027   1.081       .  S
Mg1989     O2018   2.137       .  S
Mg1989     O2029   2.227       .  S
Mg1989     O2000   2.288       .  S
O1990     Mg2032   2.140       .  S
O1990     Mg2015   2.144       .  S
O1990      C2011   1.242       .  S
O1991      C2022   1.271       .  A
O1991     Mg2015   2.317       .  S
C1992      O1994   1.283       .  A
C1992      O2006   1.265       .  A
C1992      C2166   1.484       .  S
O1993      C2021   1.277       .  A
O1993     Mg1995   2.325       .  S
O1994     Mg2026   2.351       .  S
Mg1995     O2001   2.127       .  S
C1996      O2034   1.258       .  A
C1996      O2002   1.258       .  A
C1996      C2206   1.424       .  S
O1997      C2004   1.265       .  A
H1998      C2011   1.081       .  S
C1999      O2013   1.233       .  S
C1999      O2014   1.267       .  A
C1999      H2024   1.081       .  S
O2000      C2023   1.268       .  A
O2001     Mg2015   2.179       .  S
O2002     Mg2032   2.221       .  S
C2003      O2016   1.266       .  A
C2003      O2008   1.292       .  A
C2003      C2039   1.487       .  S
C2004      C2047   1.490       .  S
Mg2005     O2012   2.130       .  S
Mg2005     O2013   2.152       .  S
Mg2005     O2006   2.228       .  S
Mg2005     O2007   2.327       .  S
Mg2005     O2034   2.251       .  S
O2007      C2011   1.278       .  A
O2008     Mg2015   2.422       .  S
O2009      C2028   1.256       .  A
O2010      C2030   1.289       .  A
O2010     Mg2026   2.403       .  S
O2012     Mg2026   2.204       .  S
O2012      C2023   1.235       .  S
O2013     Mg2032   2.161       .  S
O2014     Mg2026   2.299       .  S
Mg2015     O2031   2.368       .  S
O2016     Mg2032   2.219       .  S
H2017      C2022   1.082       .  S
O2018     Mg2026   2.138       .  S
O2018      C2021   1.241       .  S
H2019      C2021   1.082       .  S
H2020      C2023   1.081       .  S
O2025     Mg2032   2.288       .  S
C2028      O2033   1.257   1_565  A
C2028      C2207   1.421       .  S
O2029      C2030   1.267       .  A
C2030      C2174   1.484       .  S
C2035      C2036   1.411       .  A
C2035      C2040   1.415       .  A
C2036      C2037   1.405       .  A
C2037      H2042   1.085       .  S
C2037      C2038   1.402       .  A
C2038      C2039   1.417       .  A
C2039      C2040   1.412       .  A
C2040      H2041   1.084       .  S
C2043      C2044   1.416       .  A
C2043      C2048   1.409       .  A
C2044      C2045   1.417       .  A
C2045      H2050   1.085       .  S
C2045      C2046   1.415       .  A
C2046      C2047   1.416       .  A
C2047      C2048   1.409       .  A
C2048      H2049   1.086       .  S
O2051     Mg2059   2.152       .  S
O2051      C2086   1.228       .  S
C2052      O2065   1.237       .  S
C2052      O2089   1.269       .  A
C2052      H2091   1.081       .  S
Mg2053     O2097   2.204   1_545  S
Mg2053     O2093   2.204   1_545  S
O2054     Mg2096   2.138       .  S
O2054     Mg2079   2.137       .  S
O2054      C2075   1.241       .  S
O2055      C2086   1.263       .  A
O2055     Mg2079   2.296       .  S
C2056      O2058   1.280   1_455  A
O2057      C2085   1.278       .  A
O2057     Mg2059   2.335       .  S
O2058     Mg2090   2.294       .  S
Mg2059     O2065   2.146       .  S
Mg2059     O2061   2.306       .  S
C2060      O2098   1.265       .  A
C2060      O2066   1.249       .  A
C2060      C2204   1.426       .  S
O2061      C2068   1.276       .  A
H2062      C2075   1.081       .  S
C2063      O2077   1.228       .  S
C2063      O2078   1.263       .  A
C2063      H2088   1.081       .  S
O2064      C2087   1.270       .  A
O2065     Mg2079   2.204       .  S
C2067      O2080   1.261       .  A
C2067      O2072   1.282       .  A
C2067      C2158   1.483       .  S
C2068      O2095   1.280       .  A
C2068      C2175   1.474       .  S
Mg2069     O2070   2.315       .  S
Mg2069     O2098   2.287       .  S
O2071      C2075   1.278       .  A
O2072     Mg2079   2.373       .  S
O2073      C2092   1.266       .  A
O2074     Mg2090   2.363       .  S
O2076     Mg2090   2.198       .  S
O2076      C2087   1.237       .  S
O2077     Mg2096   2.170       .  S
O2078     Mg2090   2.296       .  S
Mg2079     O2095   2.291       .  S
O2080     Mg2096   2.205       .  S
H2081      C2086   1.081       .  S
O2082     Mg2090   2.139       .  S
O2082      C2085   1.241       .  S
H2083      C2085   1.081       .  S
H2084      C2087   1.081       .  S
O2089     Mg2096   2.287       .  S
C2092      O2097   1.250       .  A
C2092      C2201   1.430       .  S
O2093      C2094   1.261       .  A
C2094      C2150   1.478       .  S
O2099     Mg2101   2.157       .  S
O2099      C2134   1.231       .  S
C2100      O2113   1.239       .  S
C2100      O2137   1.272       .  A
C2100      H2139   1.081       .  S
Mg2101     O2130   2.138       .  S
Mg2101     O2141   2.210       .  S
Mg2101     O2112   2.294       .  S
O2102     Mg2144   2.136       .  S
O2102     Mg2127   2.161       .  S
O2102      C2123   1.241       .  S
O2103      C2134   1.264       .  A
O2103     Mg2127   2.294       .  S
C2104      O2106   1.283       .  A
C2104      O2118   1.278       .  A
C2104      C2167   1.497       .  S
O2105      C2133   1.279       .  A
O2106     Mg2138   2.339       .  S
Mg2107     O2121   2.259       .  S
Mg2107     O2109   2.315       .  S
C2108      O2146   1.265       .  A
C2108      O2114   1.261       .  A
C2108      C2199   1.422       .  S
H2110      C2123   1.081       .  S
C2111      O2125   1.230       .  S
C2111      O2126   1.264       .  A
C2111      H2136   1.081       .  S
O2112      C2135   1.272       .  A
O2113     Mg2127   2.189       .  S
O2114     Mg2144   2.256       .  S
C2115      O2128   1.266       .  A
C2115      O2120   1.278       .  A
C2115      C2151   1.473       .  S
C2116      O2143   1.279   1_455  A
Mg2117     O2124   2.134       .  S
Mg2117     O2125   2.153       .  S
Mg2117     O2118   2.330       .  S
Mg2117     O2119   2.332       .  S
Mg2117     O2146   2.258       .  S
O2119      C2123   1.278       .  A
O2120     Mg2127   2.342       .  S
O2121      C2140   1.264       .  A
O2122      C2142   1.279       .  A
O2122     Mg2138   2.346       .  S
O2124     Mg2138   2.188       .  S
O2124      C2135   1.238       .  S
O2125     Mg2144   2.164       .  S
O2126     Mg2138   2.290       .  S
Mg2127     O2143   2.312       .  S
O2128     Mg2144   2.232       .  S
H2129      C2134   1.081       .  S
O2130     Mg2138   2.177       .  S
O2130      C2133   1.241       .  S
H2131      C2133   1.081       .  S
H2132      C2135   1.081       .  S
O2137     Mg2144   2.293       .  S
C2140      O2145   1.261       .  A
C2140      C2198   1.424       .  S
O2141      C2142   1.264       .  A
C2142      C2159   1.469       .  S
C2147      C2148   1.419       .  A
C2147      C2152   1.403       .  A
C2148      C2149   1.412       .  A
C2149      H2154   1.084       .  S
C2149      C2150   1.414       .  A
C2150      C2151   1.411       .  A
C2151      C2152   1.404       .  A
C2152      H2153   1.085       .  S
C2155      C2156   1.415       .  A
C2157      H2162   1.085       .  S
C2157      C2158   1.410       .  A
C2158      C2159   1.409       .  A
C2159      C2160   1.410       .  A
C2160      H2161   1.085   1_655  S
C2163      C2164   1.420       .  A
C2163      C2168   1.418       .  A
C2164      C2165   1.406       .  A
C2165      H2170   1.085       .  S
C2165      C2166   1.420       .  A
C2166      C2167   1.419       .  A
C2167      C2168   1.407       .  A
C2168      H2169   1.085       .  S
C2171      C2172   1.419       .  A
C2173      H2178   1.086       .  S
C2173      C2174   1.400       .  A
C2174      C2175   1.418       .  A
C2175      C2176   1.407       .  A
C2176      H2177   1.085       .  S
C2179      C2219   1.445       .  S
C2179      C2184   1.406       .  A
C2180      C2212   1.437       .  S
C2181      C2216   1.441       .  S
C2183      C2184   1.402       .  A
C2184      C2214   1.440       .  S
C2185      C2232   1.443       .  S
C2185      C2186   1.403       .  A
C2185      C2190   1.406       .  A
C2186      C2221   1.452       .  S
C2186      C2187   1.405       .  A
C2187      C2225   1.443       .  S
C2187      C2188   1.407       .  A
C2188      C2230   1.443       .  S
C2188      C2189   1.404       .  A
C2189      C2223   1.452       .  S
C2189      C2190   1.405       .  A
C2190      C2228   1.441       .  S
C2191      C2200   1.439       .  S
C2191      C2192   1.404       .  A
C2191      C2196   1.402       .  A
C2192      C2202   1.441       .  S
C2192      C2193   1.407       .  A
C2193      C2208   1.444       .  S
C2193      C2194   1.400       .  A
C2194      C2197   1.441       .  S
C2194      C2195   1.402       .  A
C2195      C2203   1.439       .  S
C2195      C2196   1.407       .  A
C2196      C2205   1.447       .  S
C2197      C2198   1.201       .  T
C2199      C2200   1.200       .  T
C2201      C2202   1.202       .  T
C2203      C2204   1.200       .  T
C2205      C2206   1.201       .  T
C2207      C2208   1.199       .  T
C2209      C2210   1.199       .  T
C2211      C2212   1.198       .  T
C2213      C2214   1.201       .  T
C2215      C2216   1.201       .  T
C2217      C2218   1.198       .  T
C2219      C2220   1.199       .  T
C2221      C2222   1.207       .  T
C2223      C2224   1.206       .  T
C2225      C2226   1.202       .  T
C2227      C2228   1.200       .  T
C2229      C2230   1.201       .  T
C2231      C2232   1.201       .  T
