geometry optimzed in LAMMPS
_audit_creation_date              2020-11-30 
_audit_creation_method            'lammps2cif' 
_symmetry_space_group_name_H-M    'P1' 
_symmetry_Int_Tables_number       1 
_symmetry_cell_setting            triclinic 
loop_ 
_symmetry_equiv_pos_as_xyz 
  x,y,z 
_cell_length_a                    48.94759971 
_cell_length_b                    48.91899792042425 
_cell_length_c                    53.33601397363527 
_cell_angle_alpha                 90.04965441318818 
_cell_angle_beta                  89.98170173962052 
_cell_angle_gamma                 90.02104668696046 
loop_ 
_atom_site_label 
_atom_site_type_symbol 
_atom_site_fract_x 
_atom_site_fract_y 
_atom_site_fract_z 
_atom_site_charge 
N1          N  0.45960743  0.80726580  0.26954504    -0.27300
N2          N  0.44696217  0.83073494  0.27365089    -0.35200
C3          C  0.42472174  0.82612574  0.28787352     0.01000
C4          C  0.42354161  0.79851496  0.29324919     0.07000
C5          C  0.44587906  0.78713211  0.28124392    -0.06100
H6          H  0.41080795  0.84180507  0.29432849     0.07700
H7          H  0.45164767  0.76579138  0.28087180     0.08900
Cu8        Cu  0.46157839  0.86820397  0.26122466     0.44200
Cu9        Cu  0.49497995  0.80383350  0.24823246     0.38800
Cu10       Cu  0.52848473  0.86771377  0.23223693     0.43900
N11         N  0.48268221  0.90336719  0.25119266    -0.34700
N12         N  0.50775138  0.90321143  0.24192528    -0.29000
C13         C  0.51639808  0.92916844  0.23926883    -0.05100
C14         C  0.49561138  0.94641760  0.24687127     0.07100
C15         C  0.47451098  0.92942516  0.25421207     0.00900
H16         H  0.53618339  0.93503491  0.23199221     0.08600
H17         H  0.45496432  0.93552186  0.26186234     0.07700
N18         N  0.54252325  0.82959635  0.22093164    -0.36200
N19         N  0.52994238  0.80637215  0.22625405    -0.28400
C20         C  0.54328779  0.78566353  0.21503313    -0.03600
C21         C  0.56525546  0.79640390  0.20202183     0.05000
C22         C  0.56433528  0.82424581  0.20636437     0.03100
H23         H  0.53741841  0.76437805  0.21621059     0.08200
H24         H  0.57815693  0.83954677  0.19904139     0.07000
N25         N  0.84401994  0.42816906  0.73080501    -0.27300
N26         N  0.86650396  0.41451701  0.72518546    -0.35200
C27         C  0.85981861  0.39284767  0.71085400     0.01000
C28         C  0.83185213  0.39319123  0.70704293     0.07000
C29         C  0.82247453  0.41574801  0.72007756    -0.06100
H30         H  0.87431988  0.37848792  0.70304444     0.07700
H31         H  0.80158161  0.42277585  0.72151942     0.08900
Cu32       Cu  0.90526611  0.42809323  0.73515373     0.44200
Cu33       Cu  0.84394601  0.46397130  0.75150423     0.42000
Cu34       Cu  0.90874259  0.49836517  0.75868472     0.43900
N35         N  0.94141526  0.44924218  0.74174843    -0.34700
N36         N  0.94256308  0.47523295  0.74860083    -0.29000
C37         C  0.96886738  0.48315751  0.74939533    -0.05100
C38         C  0.98499548  0.46100048  0.74316992     0.07100
C39         C  0.96700786  0.43981155  0.73855825     0.00900
H40         H  0.97575478  0.50333072  0.75482484     0.08600
H41         H  0.97210052  0.41920801  0.73284267     0.07700
N42         N  0.87210572  0.51405057  0.77200173    -0.36200
N43         N  0.84862876  0.50086483  0.77002759    -0.28400
C44         C  0.82904735  0.51524623  0.78174527    -0.03600
C45         C  0.84070151  0.53867349  0.79159578     0.05000
C46         C  0.86800984  0.53736749  0.78489606     0.03100
H47         H  0.80784882  0.50910738  0.78286594     0.08200
H48         H  0.88387100  0.55186881  0.78968455     0.07000
N49         N  0.47156213  0.81273518  0.73199029    -0.27300
N50         N  0.45643881  0.83482134  0.72872546    -0.35200
C51         C  0.43416174  0.82794439  0.71525931     0.01000
C52         C  0.43565221  0.80029859  0.70952705     0.07000
C53         C  0.45956567  0.79136861  0.72061919    -0.06100
H54         H  0.41846485  0.84214605  0.70943380     0.07700
H55         H  0.46768846  0.77080629  0.72053810     0.08900
Cu56       Cu  0.46864184  0.87340761  0.74120156     0.44200
Cu57       Cu  0.50810520  0.81235754  0.75130520     0.42000
Cu58       Cu  0.53825169  0.87654606  0.76752163     0.43900
N59         N  0.48898661  0.90947265  0.75075099    -0.34700
N60         N  0.51462851  0.91048312  0.75863981    -0.29000
C61         C  0.52235556  0.93678577  0.76062710    -0.05100
C62         C  0.50046399  0.95309777  0.75415025     0.07100
C63         C  0.47958746  0.93520029  0.74813106     0.00900
H64         H  0.54236609  0.94352850  0.76663707     0.08600
H65         H  0.45940149  0.94047099  0.74144254     0.07700
N66         N  0.55533420  0.83923905  0.77753230    -0.36200
N67         N  0.54391777  0.81567484  0.77150689    -0.28400
C68         C  0.55889736  0.79517512  0.78100059    -0.03600
C69         C  0.58077720  0.80625011  0.79389080     0.05000
C70         C  0.57799985  0.83433419  0.79112013     0.03100
H71         H  0.55396103  0.77372222  0.77900346     0.08200
H72         H  0.59153400  0.85009538  0.79799087     0.07000
N73         N  0.68076602  0.70585035  0.13930250    -0.27300
N74         N  0.66782503  0.71087441  0.11804469    -0.35200
C75         C  0.64692389  0.72797914  0.12264104     0.01000
C76         C  0.64677738  0.73426689  0.14796631     0.07000
C77         C  0.66852887  0.71978533  0.15795377    -0.06100
H78         H  0.63275651  0.73519230  0.10856017     0.07700
H79         H  0.67438593  0.71853096  0.17747298     0.08900
Cu80       Cu  0.67879456  0.69423189  0.08361863     0.44200
Cu81       Cu  0.71289352  0.67840944  0.14231542     0.42000
Cu82       Cu  0.73115048  0.64291073  0.08465942     0.43900
N83         N  0.69535231  0.67711602  0.05133851    -0.34700
N84         N  0.71474620  0.65833069  0.05176250    -0.29000
C85         C  0.72231675  0.65255030  0.02809154    -0.05100
C86         C  0.70695521  0.66849585  0.01197672     0.07100
C87         C  0.69001894  0.68377741  0.02735386     0.00900
H88         H  0.73828716  0.63828185  0.02305823     0.08600
H89         H  0.67541222  0.69913075  0.02160467     0.07700
N90         N  0.74598704  0.63254156  0.11977942    -0.36200
N91         N  0.74029228  0.64613458  0.14058587    -0.28400
C92         C  0.75333859  0.63425525  0.15990854    -0.03600
C93         C  0.76756091  0.61192880  0.15085022     0.05000
C94         C  0.76249470  0.61145411  0.12536024     0.03100
H95         H  0.75177565  0.64078229  0.17924301     0.08200
H96         H  0.77018123  0.59683920  0.11185708     0.07000
N97         N  0.75739670  0.65635680  0.85825507    -0.27300
N98         N  0.76219153  0.64259252  0.87913099    -0.35200
C99         C  0.77927411  0.62182653  0.87398947     0.01000
C100        C  0.78580312  0.62271604  0.84875706     0.07000
C101        C  0.77159625  0.64490154  0.83936681    -0.06100
H102        H  0.78570783  0.60660818  0.88745754     0.07700
H103        H  0.77016320  0.65110599  0.81994678     0.08900
Cu104      Cu  0.74393927  0.65105167  0.91343876     0.44200
Cu105      Cu  0.72836254  0.68703449  0.85532004     0.42000
Cu106      Cu  0.69057448  0.70146137  0.91226074     0.43900
N107        N  0.72322722  0.66384464  0.94535444    -0.34700
N108        N  0.70366513  0.68245811  0.94489265    -0.29000
C109        C  0.69467253  0.68675497  0.96841130    -0.05100
C110        C  0.70928863  0.67003830  0.98445617     0.07100
C111        C  0.72721216  0.65578209  0.96919806     0.00900
H112        H  0.67885941  0.70119621  0.97344631     0.08600
H113        H  0.74226739  0.64088934  0.97499408     0.07700
N114        N  0.68071514  0.71760798  0.87744574    -0.36200
N115        N  0.69447401  0.71242743  0.85665069    -0.28400
C116        C  0.68234765  0.72537448  0.83738627    -0.03600
C117        C  0.65982619  0.73940791  0.84649638     0.05000
C118        C  0.65958458  0.73410309  0.87199839     0.03100
H119        H  0.68958084  0.72473174  0.81823163     0.08200
H120        H  0.64482622  0.74131788  0.88557817     0.07000
N121        N  0.84587536  0.42522917  0.26766106    -0.27300
N122        N  0.86958117  0.41364459  0.27282449    -0.35200
C123        C  0.86514843  0.39103928  0.28658178     0.01000
C124        C  0.83726267  0.38844662  0.29031341     0.07000
C125        C  0.82571422  0.41034192  0.27786206    -0.06100
H126        H  0.88107199  0.37739824  0.29290698     0.07700
H127        H  0.80422090  0.41532976  0.27663175     0.08900
Cu128      Cu  0.90665958  0.42994142  0.26157501     0.44200
Cu129      Cu  0.84195973  0.46122003  0.24792504     0.42000
Cu130      Cu  0.90400888  0.49955227  0.23747762     0.43900
N131        N  0.94084538  0.45272152  0.25219956    -0.34700
N132        N  0.94001079  0.47855906  0.24492498    -0.29000
C133        C  0.96573656  0.48781871  0.24220779    -0.05100
C134        C  0.98348387  0.46666091  0.24766447     0.07100
C135        C  0.96705675  0.44470807  0.25381379     0.00900
H136        H  0.97109447  0.50830037  0.23635084     0.08600
H137        H  0.97364900  0.42461836  0.25973821     0.07700
N138        N  0.86552669  0.51300431  0.22661790    -0.36200
N139        N  0.84306058  0.49843456  0.22984783    -0.28400
C140        C  0.82192277  0.51146375  0.21917792    -0.03600
C141        C  0.83142068  0.53557055  0.20885692     0.05000
C142        C  0.85919555  0.53589028  0.21390185     0.03100
H143        H  0.80118525  0.50380701  0.21880015     0.08200
H144        H  0.87392203  0.55101919  0.20788924     0.07000
N145        N  0.68108244  0.22265866  0.63697490    -0.27300
N146        N  0.67111480  0.21296557  0.61575564    -0.35200
C147        C  0.65128732  0.19474054  0.62100845     0.01000
C148        C  0.64872192  0.19289166  0.64687872     0.07000
C149        C  0.66797813  0.21094781  0.65626650    -0.06100
H150        H  0.63904543  0.18445503  0.60700377     0.07700
H151        H  0.67199627  0.21556663  0.67575749     0.08900
Cu152      Cu  0.68456515  0.22650524  0.58109312     0.44200
Cu153      Cu  0.71087216  0.25256078  0.63907170     0.42000
Cu154      Cu  0.73673441  0.28086368  0.58162270     0.43900
N155        N  0.70122843  0.24422625  0.54930204    -0.34700
N156        N  0.72008304  0.26363936  0.54931788    -0.29000
C157        C  0.72556134  0.27068033  0.52544026    -0.05100
C158        C  0.70928554  0.25505264  0.50977422     0.07100
C159        C  0.69421625  0.23849173  0.52551722     0.00900
H160        H  0.74001882  0.28630262  0.51995156     0.08600
H161        H  0.67897964  0.22357139  0.52015204     0.07700
N162        N  0.74864848  0.29464997  0.61692272    -0.36200
N163        N  0.73938617  0.28374798  0.63793613    -0.28400
C164        C  0.75090938  0.29653146  0.65758612    -0.03600
C165        C  0.76828237  0.31655321  0.64857428     0.05000
C166        C  0.76617835  0.31493620  0.62269195     0.03100
H167        H  0.74652801  0.29190222  0.67700664     0.08200
H168        H  0.77682672  0.32738863  0.60907526     0.07000
N169        N  0.74484525  0.27553265  0.35497998    -0.27300
N170        N  0.74982864  0.28991918  0.37545698    -0.35200
C171        C  0.76665638  0.31068217  0.36971686     0.01000
C172        C  0.77236374  0.30948199  0.34433430     0.07000
C173        C  0.75830992  0.28681283  0.33562904    -0.06100
H174        H  0.77370226  0.32588829  0.38296557     0.07700
H175        H  0.75778409  0.27902696  0.31665287     0.08900
Cu176      Cu  0.73332606  0.28116062  0.41015011     0.44200
Cu177      Cu  0.71854555  0.24242542  0.35362804     0.42000
Cu178      Cu  0.68148137  0.22852288  0.41063997     0.43900
N179        N  0.71602209  0.26603397  0.44258894    -0.34700
N180        N  0.69705582  0.24678632  0.44284246    -0.29000
C181        C  0.69144762  0.24025065  0.46678432    -0.05100
C182        C  0.70773993  0.25609185  0.48225468     0.07100
C183        C  0.72300032  0.27226463  0.46629767     0.00900
H184        H  0.67709029  0.22461457  0.47244995     0.08600
H185        H  0.73854783  0.28695242  0.47145414     0.07700
N186        N  0.67228037  0.21053571  0.37630532    -0.36200
N187        N  0.68661581  0.21476705  0.35566431    -0.28400
C188        C  0.67544074  0.20044197  0.33671219    -0.03600
C189        C  0.65271545  0.18680005  0.34575769     0.05000
C190        C  0.65143909  0.19357726  0.37097784     0.03100
H191        H  0.68257498  0.20095375  0.31751615     0.08200
H192        H  0.63631390  0.18691784  0.38444531     0.07000
N193        N  0.53653506  0.11445420  0.26760329    -0.27300
N194        N  0.54997203  0.09117329  0.26985570    -0.35200
C195        C  0.57384045  0.09600371  0.28167238     0.01000
C196        C  0.57550383  0.12375420  0.28698255     0.07000
C197        C  0.55138017  0.13465328  0.27785215    -0.06100
H198        H  0.58794269  0.08018455  0.28733597     0.07700
H199        H  0.54469559  0.15567877  0.27927079     0.08900
Cu200      Cu  0.53322863  0.05384456  0.25908388     0.44200
Cu201      Cu  0.49768799  0.11762767  0.25254732     0.42000
Cu202      Cu  0.46079925  0.05536944  0.24078745     0.43900
N203        N  0.50981921  0.01932779  0.25127069    -0.34700
N204        N  0.48332499  0.01981893  0.24626734    -0.29000
C205        C  0.47418550  0.99396539  0.24414102    -0.05100
C206        C  0.49602672  0.97645416  0.24749891     0.07100
C207        C  0.51829570  0.99316497  0.25187125     0.00900
H208        H  0.45329255  0.98836286  0.23995376     0.08600
H209        H  0.53900218  0.98677509  0.25585442     0.07700
N210        N  0.44519986  0.09389202  0.23263194    -0.36200
N211        N  0.45911401  0.11663315  0.23667105    -0.28400
C212        C  0.44497259  0.13793477  0.22751079    -0.03600
C213        C  0.42081555  0.12825365  0.21744588     0.05000
C214        C  0.42167583  0.10018901  0.22087103     0.03100
H215        H  0.45213697  0.15886069  0.22747892     0.08200
H216        H  0.40709803  0.08531155  0.21406372     0.07000
N217        N  0.15471083  0.49739127  0.72979519    -0.27300
N218        N  0.13207991  0.51022106  0.72330690    -0.35200
C219        C  0.13881797  0.53326449  0.71096000     0.01000
C220        C  0.16711920  0.53506955  0.70988766     0.07000
C221        C  0.17640499  0.51177037  0.72187161    -0.06100
H222        H  0.12421108  0.54762248  0.70334951     0.07700
H223        H  0.19736572  0.50528786  0.72422345     0.08900
Cu224      Cu  0.09360427  0.49445743  0.73134655     0.44200
Cu225      Cu  0.15512982  0.46102166  0.74921409     0.42000
Cu226      Cu  0.09203393  0.42509078  0.75895028     0.43900
N227        N  0.05829037  0.47228796  0.73897290    -0.34700
N228        N  0.05777830  0.44675125  0.74721038    -0.29000
C229        C  0.03161273  0.43854454  0.74914428    -0.05100
C230        C  0.01495890  0.46008202  0.74232278     0.07100
C231        C  0.03247072  0.48114610  0.73607757     0.00900
H232        H  0.02518861  0.41881376  0.75615503     0.08600
H233        H  0.02688124  0.50143469  0.72986217     0.07700
N234        N  0.12909308  0.41232857  0.77401493    -0.36200
N235        N  0.15201868  0.42608304  0.77055236    -0.28400
C236        C  0.17224085  0.41410688  0.78347925    -0.03600
C237        C  0.16159233  0.39178184  0.79591853     0.05000
C238        C  0.13422376  0.39098919  0.78926660     0.03100
H239        H  0.19323186  0.42100308  0.78344302     0.08200
H240        H  0.11910909  0.37631351  0.79542506     0.07000
N241        N  0.53615288  0.12257192  0.73264765    -0.27300
N242        N  0.54784195  0.09934328  0.72596195    -0.35200
C243        C  0.56899950  0.10489358  0.71065314     0.01000
C244        C  0.57083695  0.13300900  0.70773973     0.07000
C245        C  0.54951104  0.14347748  0.72187065    -0.06100
H246        H  0.58209939  0.08958203  0.70229840     0.07700
H247        H  0.54362108  0.16468307  0.72377056     0.08900
Cu248      Cu  0.53344280  0.06131593  0.73730959     0.44200
Cu249      Cu  0.50207285  0.12494605  0.75546721     0.42000
Cu250      Cu  0.46700569  0.06156167  0.76822943     0.43900
N251        N  0.51236530  0.02619476  0.74775795    -0.34700
N252        N  0.48741897  0.02627586  0.75733590    -0.29000
C253        C  0.47907390  0.00028247  0.76054543    -0.05100
C254        C  0.49997786  0.98311007  0.75311475     0.07100
C255        C  0.52079920  0.00016160  0.74523895     0.00900
H256        H  0.45964727  0.99436343  0.76856129     0.08600
H257        H  0.54049340  0.99409452  0.73789340     0.07700
N258        N  0.45418182  0.09922110  0.78185400    -0.36200
N259        N  0.46739066  0.12227776  0.77748104    -0.28400
C260        C  0.45435085  0.14287739  0.78905564    -0.03600
C261        C  0.43185867  0.13237276  0.80153236     0.05000
C262        C  0.43229554  0.10457129  0.79632325     0.03100
H263        H  0.46071702  0.16404478  0.78831441     0.08200
H264        H  0.41742743  0.08936552  0.80170501     0.07000
N265        N  0.31038282  0.21954167  0.14826952    -0.27300
N266        N  0.32344546  0.21290382  0.12740818    -0.35200
C267        C  0.34423999  0.19607809  0.13319111     0.01000
C268        C  0.34434065  0.19194356  0.15889935     0.07000
C269        C  0.32241965  0.20696108  0.16778944    -0.06100
H270        H  0.35831386  0.18758497  0.11962753     0.07700
H271        H  0.31628761  0.20941057  0.18715299     0.08900
Cu272      Cu  0.31332305  0.22745681  0.09185359     0.44200
Cu273      Cu  0.27859946  0.24754717  0.14996758     0.42000
Cu274      Cu  0.26432854  0.28178674  0.09146863     0.43900
N275        N  0.29866498  0.24524155  0.05898130    -0.34700
N276        N  0.28057177  0.26528362  0.05910524    -0.29000
C277        C  0.27450195  0.27221528  0.03537540    -0.05100
C278        C  0.28951459  0.25578107  0.01943590     0.07100
C279        C  0.30465759  0.23889701  0.03501374     0.00900
H280        H  0.26004141  0.28793316  0.03016739     0.08600
H281        H  0.31880363  0.22305610  0.02937368     0.07700
N282        N  0.24825497  0.29383761  0.12551105    -0.36200
N283        N  0.25231467  0.28062359  0.14679463    -0.28400
C284        C  0.23848678  0.29338829  0.16519796    -0.03600
C285        C  0.22533704  0.31577840  0.15493293     0.05000
C286        C  0.23211960  0.31554550  0.12980714     0.03100
H287        H  0.23875397  0.28737697  0.18471331     0.08200
H288        H  0.22574452  0.33003653  0.11565827     0.07000
N289        N  0.25579674  0.28376565  0.86368257    -0.27300
N290        N  0.24806600  0.29533387  0.88495925    -0.35200
C291        C  0.22938849  0.31474385  0.87986581     0.01000
C292        C  0.22486379  0.31509959  0.85422752     0.07000
C293        C  0.24202825  0.29524010  0.84458448    -0.06100
H294        H  0.21979414  0.32764814  0.89379952     0.07700
H295        H  0.24500741  0.29011532  0.82503818     0.08900
Cu296      Cu  0.26293003  0.28389701  0.92002930     0.44200
Cu297      Cu  0.28590501  0.25410538  0.86106326     0.42000
Cu298      Cu  0.31289612  0.22926073  0.91953631     0.43900
N299        N  0.27935587  0.26654113  0.95236761    -0.34700
N300        N  0.29733835  0.24637287  0.95203512    -0.29000
C301        C  0.30370710  0.23948221  0.97573007    -0.05100
C302        C  0.28905003  0.25608966  0.99180910     0.07100
C303        C  0.27380526  0.27300551  0.97637807     0.00900
H304        H  0.31799469  0.22356203  0.98082172     0.08600
H305        H  0.25967619  0.28880768  0.98214433     0.07700
N306        N  0.32736751  0.21691907  0.88487520    -0.36200
N307        N  0.31766614  0.22620187  0.86340362    -0.28400
C308        C  0.33203573  0.21514909  0.84445120    -0.03600
C309        C  0.35188104  0.19814179  0.85448555     0.05000
C310        C  0.34809975  0.19964124  0.88018738     0.03100
H311        H  0.32810301  0.21911144  0.82483801     0.08200
H312        H  0.35993478  0.18940174  0.89449965     0.07000
N313        N  0.15108260  0.50768885  0.26896814    -0.27300
N314        N  0.12763936  0.52054312  0.27237421    -0.35200
C315        C  0.13213392  0.54303067  0.28637062     0.01000
C316        C  0.15969712  0.54411422  0.29230326     0.07000
C317        C  0.17105510  0.52146487  0.28074397    -0.06100
H318        H  0.11635262  0.55694416  0.29260907     0.07700
H319        H  0.19225760  0.51525245  0.28097341     0.08900
Cu320      Cu  0.09054698  0.50481503  0.25998088     0.44200
Cu321      Cu  0.15473701  0.47115798  0.24978795     0.42000
Cu322      Cu  0.09254569  0.43313730  0.24044006     0.43900
N323        N  0.05618615  0.48153220  0.25160498    -0.34700
N324        N  0.05686961  0.45507375  0.24643070    -0.29000
C325        C  0.03112872  0.44574720  0.24420258    -0.05100
C326        C  0.01347531  0.46744806  0.24773178     0.07100
C327        C  0.02998986  0.48982775  0.25226567     0.00900
H328        H  0.02570430  0.42480971  0.23993784     0.08600
H329        H  0.02344903  0.51043395  0.25654264     0.07700
N330        N  0.13050656  0.41971412  0.22831115    -0.36200
N331        N  0.15309854  0.43418634  0.23109670    -0.28400
C332        C  0.17378268  0.42135134  0.21946110    -0.03600
C333        C  0.16374924  0.39763975  0.20869031     0.05000
C334        C  0.13626265  0.39713660  0.21489730     0.03100
H335        H  0.19459490  0.42876967  0.21901191     0.08200
H336        H  0.12136352  0.38193219  0.20939454     0.07000
N337        N  0.32672161  0.70292854  0.64560406    -0.27300
N338        N  0.33676337  0.71167336  0.62400928    -0.35200
C339        C  0.35638415  0.73030860  0.62874307     0.01000
C340        C  0.35838292  0.73373230  0.65446533     0.07000
C341        C  0.33943928  0.71589584  0.66453661    -0.06100
H342        H  0.36819287  0.74075291  0.61452463     0.07700
H343        H  0.33557166  0.71210252  0.68419631     0.08900
Cu344      Cu  0.32285157  0.69825491  0.58904070     0.44200
Cu345      Cu  0.29657764  0.67338455  0.64890644     0.42000
Cu346      Cu  0.26918816  0.64745127  0.59073678     0.43900
N347        N  0.30419640  0.68227549  0.55695458    -0.34700
N348        N  0.28456864  0.66370328  0.55770578    -0.29000
C349        C  0.27650829  0.65790188  0.53415949    -0.05100
C350        C  0.29176305  0.67356435  0.51771818     0.07100
C351        C  0.30912277  0.68876916  0.53282648     0.00900
H352        H  0.26057457  0.64346850  0.52941114     0.08600
H353        H  0.32409295  0.70363089  0.52675666     0.07700
N354        N  0.25619912  0.63452130  0.62579591    -0.36200
N355        N  0.26625293  0.64387358  0.64712943    -0.28400
C356        C  0.25359627  0.63129752  0.66631939    -0.03600
C357        C  0.23441365  0.61332007  0.65660339     0.05000
C358        C  0.23684308  0.61582062  0.63081742     0.03100
H359        H  0.25792082  0.63512698  0.68590171     0.08200
H360        H  0.22579897  0.60451067  0.61664157     0.07000
N361        N  0.24598431  0.65682761  0.36288363    -0.27300
N362        N  0.23939397  0.64379463  0.38375045    -0.35200
C363        C  0.22163369  0.62368867  0.37805347     0.01000
C364        C  0.21653869  0.62445849  0.35250565     0.07000
C365        C  0.23249987  0.64557343  0.34349517    -0.06100
H366        H  0.21353707  0.60914184  0.39139696     0.07700
H367        H  0.23534413  0.65137843  0.32410405     0.08900
Cu368      Cu  0.25605872  0.65315267  0.41878750     0.44200
Cu369      Cu  0.27516464  0.68732273  0.36077352     0.42000
Cu370      Cu  0.31083623  0.70353557  0.41768255     0.43900
N371        N  0.27635988  0.66700826  0.45084398    -0.34700
N372        N  0.29633142  0.68523823  0.45024897    -0.29000
C373        C  0.30490639  0.69013825  0.47379764    -0.05100
C374        C  0.28964786  0.67430965  0.49008760     0.07100
C375        C  0.27173805  0.65986875  0.47488772     0.00900
H376        H  0.32094554  0.70439605  0.47868332     0.08600
H377        H  0.25632709  0.64541234  0.48085826     0.07700
N378        N  0.32103304  0.72010747  0.38303444    -0.36200
N379        N  0.30752495  0.71446371  0.36222991    -0.28400
C380        C  0.31938199  0.72752565  0.34290949    -0.03600
C381        C  0.34150684  0.74221653  0.35192910     0.05000
C382        C  0.34195589  0.73689056  0.37747689     0.03100
H383        H  0.31309377  0.72533802  0.32357494     0.08200
H384        H  0.35668608  0.74429540  0.39099132     0.07000
C385        C  0.16652726  0.59219577  0.30658665    -0.26400
C386        C  0.17379557  0.56449501  0.30831261    -0.14400
C387        C  0.19444384  0.55666875  0.32531827     0.36200
C388        C  0.20774795  0.57655606  0.33981524    -0.25800
C389        C  0.20109925  0.60428906  0.33749903    -0.15100
C390        C  0.18011802  0.61213723  0.32076919     0.37300
N391        N  0.17172897  0.64004969  0.31827098    -0.89300
H392        H  0.15053781  0.59846867  0.29377600     0.18400
H393        H  0.22366304  0.57030120  0.35271980     0.18400
N394        N  0.20153573  0.52847828  0.32843320    -0.88300
H395        H  0.18820429  0.65151343  0.31163428     0.35800
H396        H  0.16623754  0.64739185  0.33598369     0.40800
H397        H  0.19839970  0.52324977  0.34721821     0.40500
H398        H  0.22235597  0.52631173  0.32451615     0.35400
C399        C  0.17279474  0.34928105  0.19706986    -0.26400
C400        C  0.17906244  0.37707545  0.19393649    -0.14400
C401        C  0.19997928  0.38471006  0.17702568     0.36200
C402        C  0.21465085  0.36430108  0.16425409    -0.25800
C403        C  0.20893953  0.33654925  0.16814279    -0.15100
C404        C  0.18767067  0.32901396  0.18445011     0.37300
N405        N  0.18077076  0.30080747  0.18783788    -0.89300
H406        H  0.15662293  0.34318722  0.20977028     0.18400
H407        H  0.23086306  0.37003615  0.15145040     0.18400
N408        N  0.20600133  0.41306202  0.17258706    -0.88300
H409        H  0.16033991  0.29816588  0.18265621     0.35800
H410        H  0.18251671  0.29622819  0.20691348     0.40800
H411        H  0.18881877  0.42182351  0.16417371     0.40500
H412        H  0.22207422  0.41510219  0.15980636     0.35400
C413        C  0.40353687  0.17410800  0.80586365    -0.26400
C414        C  0.41102758  0.14843326  0.81541360    -0.14400
C415        C  0.39959951  0.13970316  0.83845409     0.36200
C416        C  0.38060628  0.15631649  0.85082497    -0.25800
C417        C  0.37261275  0.18166568  0.84091520    -0.15100
C418        C  0.38473362  0.19093193  0.81843913     0.37300
N419        N  0.37859528  0.21766934  0.80880733    -0.89300
H420        H  0.41253195  0.18119990  0.78848234     0.18400
H421        H  0.37181836  0.14914450  0.86826989     0.18400
N422        N  0.40755956  0.11471971  0.85035835    -0.88300
H423        H  0.38920339  0.22128451  0.79211571     0.35800
H424        H  0.38578006  0.23197075  0.82181212     0.40800
H425        H  0.42884597  0.11430611  0.85192484     0.40500
H426        H  0.40102052  0.09828275  0.83944871     0.35400
C427        C  0.17399635  0.56870749  0.67542718    -0.26400
C428        C  0.18387512  0.55637187  0.69736807    -0.14400
C429        C  0.20979190  0.56412200  0.70668350     0.36200
C430        C  0.22569992  0.58299359  0.69320623    -0.25800
C431        C  0.21623447  0.59456425  0.67076457    -0.15100
C432        C  0.18978794  0.58782252  0.66210544     0.37300
N433        N  0.17888425  0.60060126  0.64001232    -0.89300
H434        H  0.15402437  0.56307617  0.66836736     0.18400
H435        H  0.24581934  0.58835294  0.70009216     0.18400
N436        N  0.21979529  0.55308100  0.72990291    -0.88300
H437        H  0.17683976  0.62146781  0.64382829     0.35800
H438        H  0.15927227  0.59326119  0.63611555     0.40800
H439        H  0.20684146  0.55988447  0.74419357     0.40500
H440        H  0.23923789  0.56073829  0.73399428     0.35400
C441        C  0.17580990  0.34438759  0.80588938    -0.26400
C442        C  0.17670091  0.37228798  0.81185446    -0.14400
C443        C  0.19240527  0.38106389  0.83261217     0.36200
C444        C  0.20722759  0.36194929  0.84654884    -0.25800
C445        C  0.20728100  0.33418324  0.83998134    -0.15100
C446        C  0.19111193  0.32521520  0.81963249     0.37300
N447        N  0.19010006  0.29670910  0.81314621    -0.89300
H448        H  0.16356737  0.33763247  0.79012812     0.18400
H449        H  0.21941572  0.36899263  0.86223966     0.18400
N450        N  0.19321141  0.40910078  0.84036668    -0.88300
H451        H  0.17735868  0.29356981  0.79767636     0.35800
H452        H  0.18118623  0.28631887  0.82819389     0.40800
H453        H  0.17319076  0.41584432  0.84325544     0.40500
H454        H  0.20211463  0.42077819  0.82618635     0.35400
C455        C  0.41037413  0.16028328  0.18281664    -0.26400
C456        C  0.40082173  0.14420327  0.20272684    -0.14400
C457        C  0.37269913  0.14446119  0.20863579     0.36200
C458        C  0.35472279  0.16031512  0.19428098    -0.25800
C459        C  0.36415297  0.17587019  0.17389836    -0.15100
C460        C  0.39238743  0.17617225  0.16836145     0.37300
N461        N  0.40281990  0.19313229  0.14854990    -0.89300
H462        H  0.43202224  0.16043614  0.17854084     0.18400
H463        H  0.33317270  0.16026037  0.19894558     0.18400
N464        N  0.36199719  0.12959181  0.22957511    -0.88300
H465        H  0.42398765  0.19090107  0.14688319     0.35800
H466        H  0.39929642  0.21348184  0.15361432     0.40800
H467        H  0.37237411  0.13585082  0.24572360     0.40500
H468        H  0.36565300  0.10878595  0.22676103     0.35400
C469        C  0.58645720  0.15720981  0.32038630    -0.26400
C470        C  0.59600694  0.13855781  0.30238197    -0.14400
C471        C  0.62452645  0.13592037  0.29867035     0.36200
C472        C  0.64260018  0.15192339  0.31287480    -0.25800
C473        C  0.63295412  0.17030592  0.33108277    -0.15100
C474        C  0.60453323  0.17315266  0.33468551     0.37300
N475        N  0.59405048  0.19282658  0.35226498    -0.89300
H476        H  0.56465717  0.15952552  0.32320746     0.18400
H477        H  0.66438659  0.14982110  0.30979382     0.18400
N478        N  0.63574763  0.11799130  0.28010027    -0.88300
H479        H  0.57270333  0.19226354  0.35272857     0.35800
H480        H  0.59946477  0.21225187  0.34577106     0.40800
H481        H  0.62695644  0.12263251  0.26275102     0.40500
H482        H  0.63092176  0.09788496  0.28485764     0.35400
C483        C  0.60020122  0.13707762  0.66966995    -0.26400
C484        C  0.59081654  0.14843639  0.69229627    -0.14400
C485        C  0.60066371  0.17430085  0.69985759     0.36200
C486        C  0.61914802  0.18836879  0.68444946    -0.25800
C487        C  0.62854459  0.17711119  0.66181390    -0.15100
C488        C  0.61903245  0.15106323  0.65437342     0.37300
N489        N  0.62884580  0.13863552  0.63166605    -0.89300
H490        H  0.59273126  0.11722178  0.66383204     0.18400
H491        H  0.62627570  0.20835420  0.69025180     0.18400
N492        N  0.59243563  0.18598649  0.72342133    -0.88300
H493        H  0.61962985  0.11959285  0.62884467     0.35800
H494        H  0.64973884  0.13495898  0.63393814     0.40800
H495        H  0.60135166  0.20520679  0.72602974     0.40500
H496        H  0.60001247  0.17341155  0.73765223     0.35400
C497        C  0.79898999  0.35563501  0.29253083    -0.26400
C498        C  0.82221600  0.36692559  0.30393719    -0.14400
C499        C  0.82908217  0.35900276  0.32862584     0.36200
C500        C  0.81260023  0.34019161  0.34127686    -0.25800
C501        C  0.78939153  0.32882401  0.32985393    -0.15100
C502        C  0.78244760  0.33670198  0.30519279     0.37300
N503        N  0.75820014  0.32624834  0.29337712    -0.89300
H504        H  0.79351379  0.36194547  0.27371760     0.18400
H505        H  0.81803638  0.33439267  0.36023542     0.18400
N506        N  0.85187655  0.37049080  0.34176350    -0.88300
H507        H  0.75623428  0.33395113  0.27518605     0.35800
H508        H  0.74140604  0.33348718  0.30351808     0.40800
H509        H  0.85011215  0.39178491  0.34160485     0.40500
H510        H  0.86984141  0.36483737  0.33259221     0.35400
C511        C  0.80348775  0.60195584  0.18233831    -0.26400
C512        C  0.78374755  0.59219585  0.16552498    -0.14400
C513        C  0.77949004  0.56379862  0.16311624     0.36200
C514        C  0.79532171  0.54570267  0.17748058    -0.25800
C515        C  0.81540574  0.55543276  0.19403159    -0.15100
C516        C  0.81948806  0.58382138  0.19643766     0.37300
N517        N  0.83931846  0.59435306  0.21365532    -0.89300
H518        H  0.80668217  0.62377300  0.18436143     0.18400
H519        H  0.79209241  0.52388303  0.17561841     0.18400
N520        N  0.75878004  0.55349192  0.14649078    -0.88300
H521        H  0.82924211  0.60704181  0.22644519     0.35800
H522        H  0.85316800  0.60633140  0.20355440     0.40800
H523        H  0.73986335  0.56011716  0.15328247     0.40500
H524        H  0.75834293  0.53212657  0.14686349     0.35400
C525        C  0.61274837  0.76701322  0.79560301    -0.26400
C526        C  0.60222959  0.79055304  0.80720137    -0.14400
C527        C  0.61074373  0.79702199  0.83184782     0.36200
C528        C  0.62951140  0.78010419  0.84409775    -0.25800
C529        C  0.64021466  0.75669829  0.83243475    -0.15100
C530        C  0.63153237  0.74994456  0.80794039     0.37300
N531        N  0.64102331  0.72537245  0.79597939    -0.89300
H532        H  0.60595908  0.76170068  0.77688372     0.18400
H533        H  0.63582112  0.78538925  0.86296212     0.18400
N534        N  0.59987239  0.81982978  0.84541341    -0.88300
H535        H  0.63272691  0.72350256  0.77799527     0.35800
H536        H  0.63365512  0.70881094  0.80635833     0.40800
H537        H  0.57855601  0.81845980  0.84547139     0.40500
H538        H  0.60578905  0.83784062  0.83647708     0.35400
C539        C  0.38793469  0.78756468  0.69825014    -0.26400
C540        C  0.41607744  0.78377548  0.69464167    -0.14400
C541        C  0.42513877  0.76401546  0.67714181     0.36200
C542        C  0.40584649  0.74815675  0.66404738    -0.25800
C543        C  0.37777177  0.75139710  0.66826991    -0.15100
C544        C  0.36877848  0.77145452  0.68549368     0.37300
N545        N  0.34034414  0.77638164  0.68994560    -0.89300
H546        H  0.38076803  0.80277097  0.71149493     0.18400
H547        H  0.41273422  0.73295038  0.65067703     0.18400
N548        N  0.45383070  0.76039920  0.67242967    -0.88300
H549        H  0.33159283  0.75871819  0.69743588     0.35800
H550        H  0.33094085  0.78069137  0.67280245     0.40800
H551        H  0.46117366  0.77850458  0.66449008     0.40500
H552        H  0.45703456  0.74496611  0.65917827     0.35400
C553        C  0.81538051  0.34619514  0.69834943    -0.26400
C554        C  0.81562949  0.37392057  0.69177794    -0.14400
C555        C  0.80071528  0.38264797  0.67054542     0.36200
C556        C  0.78581101  0.36358498  0.65648945    -0.25800
C557        C  0.78495433  0.33593894  0.66344929    -0.15100
C558        C  0.79996591  0.32721777  0.68454553     0.37300
N559        N  0.80018939  0.29899110  0.69163520    -0.89300
H560        H  0.82698723  0.33927912  0.71444332     0.18400
H561        H  0.77444918  0.37051025  0.64025700     0.18400
N562        N  0.80092725  0.41055755  0.66244632    -0.88300
H563        H  0.79311985  0.29757579  0.71008942     0.35800
H564        H  0.82041947  0.29214928  0.69127208     0.40800
H565        H  0.82119825  0.41651102  0.65953189     0.40500
H566        H  0.79256962  0.42270840  0.67660572     0.35400
C567        C  0.83290330  0.58775665  0.80191485    -0.26400
C568        C  0.82701373  0.56012865  0.80657618    -0.14400
C569        C  0.80807761  0.55331857  0.82546592     0.36200
C570        C  0.79530333  0.57406898  0.83924273    -0.25800
C571        C  0.80070078  0.60168535  0.83428873    -0.15100
C572        C  0.81972313  0.60867518  0.81545258     0.37300
N573        N  0.82576449  0.63688153  0.81033736    -0.89300
H574        H  0.84749998  0.59301462  0.78742042     0.18400
H575        H  0.78068454  0.56851334  0.85363098     0.18400
N576        N  0.80216960  0.52531958  0.83112836    -0.88300
H577        H  0.84008545  0.63850440  0.79586350     0.35800
H578        H  0.83493188  0.64511756  0.82635617     0.40800
H579        H  0.78118412  0.52223560  0.82879190     0.40500
H580        H  0.80689867  0.52189713  0.84998125     0.35400
C581        C  0.59880670  0.74976280  0.15393312    -0.26400
C582        C  0.62624017  0.75095403  0.16152154    -0.14400
C583        C  0.63349797  0.76807435  0.18171958     0.36200
C584        C  0.61323955  0.78311124  0.19425812    -0.25800
C585        C  0.58571953  0.78130449  0.18711154    -0.15100
C586        C  0.57846830  0.76480974  0.16628314     0.37300
N587        N  0.55098996  0.76308659  0.15681090    -0.89300
H588        H  0.59299022  0.73684545  0.13830462     0.18400
H589        H  0.61900789  0.79599057  0.20993931     0.18400
N590        N  0.66145573  0.77074566  0.18923334    -0.88300
H591        H  0.55127834  0.77002922  0.13827419     0.35800
H592        H  0.53775012  0.77614233  0.16634253     0.40800
H593        H  0.66290379  0.76516860  0.20810592     0.40500
H594        H  0.66694043  0.79133867  0.18772722     0.35400
C595        C  0.37526409  0.78588111  0.30150555    -0.26400
C596        C  0.40279031  0.78439201  0.30861668    -0.14400
C597        C  0.40991349  0.77002063  0.33061654     0.36200
C598        C  0.38958809  0.75695627  0.34464933    -0.25800
C599        C  0.36209015  0.75761146  0.33713939    -0.15100
C600        C  0.35490386  0.77253582  0.31546956     0.37300
N601        N  0.32693399  0.77478122  0.30788325    -0.89300
H602        H  0.36956059  0.79726736  0.28488608     0.18400
H603        H  0.39548839  0.74576616  0.36130738     0.18400
N604        N  0.43749135  0.76898454  0.33953526    -0.88300
H605        H  0.32526234  0.76716001  0.28962657     0.35800
H606        H  0.32176235  0.79551330  0.30751866     0.40800
H607        H  0.44454728  0.78900528  0.34184555     0.40500
H608        H  0.44956919  0.75923793  0.32609406     0.35400
loop_ 
_geom_bond_atom_site_label_1 
_geom_bond_atom_site_label_2 
_geom_bond_distance 
_geom_bond_site_symmetry_2 
_ccdc_geom_bond_type 
N1            N2   1.323       .  A
N1            C5   1.346       .  A
N1           Cu9   2.078       .  S
N2            C3   1.346       .  A
N2           Cu8   2.076       .  S
C3            C4   1.382       .  A
C3            H6   1.082       .  S
C4            C5   1.384       .  A
C4          C596   1.477       .  S
C5            H7   1.082       .  S
Cu8          N11   2.077       .  S
Cu9          N19   2.078       .  S
Cu10         N12   2.076       .  S
Cu10         N18   2.076       .  S
N11          N12   1.323       .  A
N11          C15   1.346       .  A
N12          C13   1.346       .  A
C13          C14   1.383       .  A
C13          H16   1.082       .  S
C14          C15   1.382       .  A
C14         C206   1.470       .  S
C15          H17   1.082       .  S
N18          N19   1.323       .  A
N18          C22   1.346       .  A
N19          C20   1.345       .  A
C20          C21   1.383       .  A
C20          H23   1.082       .  S
C21          C22   1.382       .  A
C21         C585   1.477       .  S
C22          H24   1.082       .  S
N25          N26   1.322       .  A
N25          C29   1.345       .  A
N25         Cu33   2.070       .  S
N26          C27   1.347       .  A
N26         Cu32   2.079       .  S
C27          C28   1.384       .  A
C27          H30   1.082       .  S
C28          C29   1.382       .  A
C28         C554   1.477       .  S
C29          H31   1.082       .  S
Cu32         N35   2.079       .  S
Cu33         N43   2.069       .  S
Cu34         N36   2.076       .  S
Cu34         N42   2.076       .  S
N35          N36   1.324       .  A
N35          C39   1.346       .  A
N36          C37   1.345       .  A
C37          C38   1.381       .  A
C37          H40   1.082       .  S
C38          C39   1.382       .  A
C38         C230   1.468   1_655  S
C39          H41   1.082       .  S
N42          N43   1.322       .  A
N42          C46   1.346       .  A
N43          C44   1.343       .  A
C44          C45   1.383       .  A
C44          H47   1.082       .  S
C45          C46   1.385       .  A
C45         C568   1.479       .  S
C46          H48   1.082       .  S
N49          N50   1.322       .  A
N49          C53   1.343       .  A
N49         Cu57   2.065       .  S
N50          C51   1.348       .  A
N50         Cu56   2.088       .  S
C51          C52   1.388       .  A
C51          H54   1.082       .  S
C52          C53   1.383       .  A
C52         C540   1.483       .  S
C53          H55   1.082       .  S
Cu56         N59   2.088       .  S
Cu57         N67   2.064       .  S
Cu58         N60   2.079       .  S
Cu58         N66   2.078       .  S
N59          N60   1.325       .  A
N59          C63   1.348       .  A
N60          C61   1.345       .  A
C61          C62   1.380       .  A
C61          H64   1.082       .  S
C62          C63   1.383       .  A
C62         C254   1.469       .  S
C63          H65   1.082       .  S
N66          N67   1.320       .  A
N66          C70   1.347       .  A
N67          C68   1.342       .  A
C68          C69   1.383       .  A
C68          H71   1.082       .  S
C69          C70   1.389       .  A
C69         C526   1.483       .  S
C70          H72   1.080       .  S
N73          N74   1.322       .  A
N73          C77   1.346       .  A
N73         Cu81   2.074       .  S
N74          C75   1.344       .  A
N74         Cu80   2.078       .  S
C75          C76   1.385       .  A
C75          H78   1.082       .  S
C76          C77   1.386       .  A
C76         C582   1.483       .  S
C77          H79   1.082       .  S
Cu80         N83   2.078       .  S
Cu81         N91   2.074       .  S
Cu82         N84   2.073       .  S
Cu82         N90   2.073       .  S
N83          N84   1.322       .  A
N83          C87   1.346       .  A
N84          C85   1.346       .  A
C85          C86   1.384       .  A
C85          H88   1.082       .  S
C86          C87   1.385       .  A
C86         C110   1.474   1_554  S
C87          H89   1.082       .  S
N90          N91   1.323       .  A
N90          C94   1.344       .  A
N91          C92   1.345       .  A
C92          C93   1.382       .  A
C92          H95   1.082       .  S
C93          C94   1.382       .  A
C93         C512   1.475       .  S
C94          H96   1.082       .  S
N97          N98   1.323       .  A
N97         C101   1.346       .  A
N97        Cu105   2.073       .  S
N98          C99   1.344       .  A
N98        Cu104   2.077       .  S
C99         C100   1.384       .  A
C99         H102   1.082       .  S
C100        C101   1.383       .  A
C100        C571   1.478       .  S
C101        H103   1.082       .  S
Cu104       N107   2.077       .  S
Cu105       N115   2.074       .  S
Cu106       N108   2.076       .  S
Cu106       N114   2.076       .  S
N107        N108   1.322       .  A
N107        C111   1.346       .  A
N108        C109   1.346       .  A
C109        C110   1.384       .  A
C109        H112   1.082       .  S
C110        C111   1.385       .  A
C111        H113   1.082       .  S
N114        N115   1.322       .  A
N114        C118   1.344       .  A
N115        C116   1.346       .  A
C116        C117   1.386       .  A
C116        H119   1.082       .  S
C117        C118   1.385       .  A
C117        C529   1.484       .  S
C118        H120   1.082       .  S
N121        N122   1.321       .  A
N121        C125   1.342       .  A
N121       Cu129   2.061       .  S
N122        C123   1.345       .  A
N122       Cu128   2.071       .  S
C123        C124   1.385       .  A
C123        H126   1.081       .  S
C124        C125   1.382       .  A
C124        C498   1.476       .  S
C125        H127   1.082       .  S
Cu128       N131   2.071       .  S
Cu129       N139   2.061       .  S
Cu130       N132   2.079       .  S
Cu130       N138   2.078       .  S
N131        N132   1.323       .  A
N131        C135   1.344       .  A
N132        C133   1.346       .  A
C133        C134   1.383       .  A
C133        H136   1.082       .  S
C134        C135   1.381       .  A
C134        C326   1.469   1_655  S
C135        H137   1.082       .  S
N138        N139   1.322       .  A
N138        C142   1.346       .  A
N139        C140   1.342       .  A
C140        C141   1.382       .  A
C140        H143   1.082       .  S
C141        C142   1.386       .  A
C141        C515   1.479       .  S
C142        H144   1.082       .  S
N145        N146   1.320       .  A
N145        C149   1.341       .  A
N145       Cu153   2.068       .  S
N146        C147   1.347       .  A
N146       Cu152   2.071       .  S
C147        C148   1.389       .  A
C147        H150   1.081       .  S
C148        C149   1.385       .  A
C148        C487   1.485       .  S
C149        H151   1.082       .  S
Cu152       N155   2.072       .  S
Cu153       N163   2.068       .  S
Cu154       N156   2.083       .  S
Cu154       N162   2.083       .  S
N155        N156   1.324       .  A
N155        C159   1.344       .  A
N156        C157   1.346       .  A
C157        C158   1.384       .  A
C157        H160   1.082       .  S
C158        C159   1.381       .  A
C158        C182   1.471       .  S
C159        H161   1.082       .  S
N162        N163   1.322       .  A
N162        C166   1.347       .  A
N163        C164   1.344       .  A
C164        C165   1.383       .  A
C164        H167   1.082       .  S
C165        C166   1.387       .  A
C165        C557   1.481       .  S
C166        H168   1.082       .  S
N169        N170   1.321       .  A
N169        C173   1.343       .  A
N169       Cu177   2.070       .  S
N170        C171   1.343       .  A
N170       Cu176   2.064       .  S
C171        C172   1.383       .  A
C171        H174   1.082       .  S
C172        C173   1.385       .  A
C172        C501   1.479       .  S
C173        H175   1.081       .  S
Cu176       N179   2.064       .  S
Cu177       N187   2.070       .  S
Cu178       N180   2.080       .  S
Cu178       N186   2.080       .  S
N179        N180   1.322       .  A
N179        C183   1.345       .  A
N180        C181   1.345       .  A
C181        C182   1.384       .  A
C181        H184   1.082       .  S
C182        C183   1.382       .  A
C183        H185   1.082       .  S
N186        N187   1.322       .  A
N186        C190   1.345       .  A
N187        C188   1.346       .  A
C188        C189   1.384       .  A
C188        H191   1.082       .  S
C189        C190   1.387       .  A
C189        C473   1.483       .  S
C190        H192   1.082       .  S
N193        N194   1.321       .  A
N193        C197   1.342       .  A
N193       Cu201   2.070       .  S
N194        C195   1.348       .  A
N194       Cu200   2.082       .  S
C195        C196   1.389       .  A
C195        H198   1.081       .  S
C196        C197   1.385       .  A
C196        C470   1.485       .  S
C197        H199   1.082       .  S
Cu200       N203   2.082       .  S
Cu201       N211   2.070       .  S
Cu202       N204   2.080       .  S
Cu202       N210   2.080       .  S
N203        N204   1.324       .  A
N203        C207   1.346   1_545  A
N204        C205   1.346   1_545  A
C205        C206   1.382       .  A
C205        H208   1.082       .  S
C206        C207   1.382       .  A
C207        H209   1.082       .  S
N210        N211   1.322       .  A
N210        C214   1.347       .  A
N211        C212   1.344       .  A
C212        C213   1.382       .  A
C212        H215   1.082       .  S
C213        C214   1.386       .  A
C213        C456   1.478       .  S
C214        H216   1.082       .  S
N217        N218   1.320       .  A
N217        C221   1.342       .  A
N217       Cu225   2.060       .  S
N218        C219   1.347       .  A
N218       Cu224   2.079       .  S
C219        C220   1.389       .  A
C219        H222   1.082       .  S
C220        C221   1.384       .  A
C220        C428   1.485       .  S
C221        H223   1.081       .  S
Cu224       N227   2.080       .  S
Cu225       N235   2.060       .  S
Cu226       N228   2.081       .  S
Cu226       N234   2.080       .  S
N227        N228   1.325       .  A
N227        C231   1.345       .  A
N228        C229   1.346       .  A
C229        C230   1.381       .  A
C229        H232   1.082       .  S
C230        C231   1.381       .  A
C231        H233   1.082       .  S
N234        N235   1.321       .  A
N234        C238   1.348       .  A
N235        C236   1.342       .  A
C236        C237   1.380       .  A
C236        H239   1.081       .  S
C237        C238   1.386       .  A
C237        C442   1.477       .  S
C238        H240   1.082       .  S
N241        N242   1.321       .  A
N241        C245   1.343       .  A
N241       Cu249   2.068       .  S
N242        C243   1.346       .  A
N242       Cu248   2.080       .  S
C243        C244   1.387       .  A
C243        H246   1.082       .  S
C244        C245   1.385       .  A
C244        C484   1.485       .  S
C245        H247   1.081       .  S
Cu248       N251   2.080       .  S
Cu249       N259   2.068       .  S
Cu250       N252   2.077       .  S
Cu250       N258   2.077       .  S
N251        N252   1.323       .  A
N251        C255   1.345       .  A
N252        C253   1.346       .  A
C253        C254   1.382   1_545  A
C253        H256   1.082   1_545  S
C254        C255   1.382   1_565  A
C255        H257   1.082   1_545  S
N258        N259   1.321       .  A
N258        C262   1.346       .  A
N259        C260   1.343       .  A
C260        C261   1.385       .  A
C260        H263   1.082       .  S
C261        C262   1.388       .  A
C261        C414   1.485       .  S
C262        H264   1.079       .  S
N265        N266   1.323       .  A
N265        C269   1.346       .  A
N265       Cu273   2.075       .  S
N266        C267   1.345       .  A
N266       Cu272   2.086       .  S
C267        C268   1.386       .  A
C267        H270   1.082       .  S
C268        C269   1.384       .  A
C268        C459   1.484       .  S
C269        H271   1.082       .  S
Cu272       N275   2.086       .  S
Cu273       N283   2.075       .  S
Cu274       N276   2.064       .  S
Cu274       N282   2.064       .  S
N275        N276   1.321       .  A
N275        C279   1.347       .  A
N276        C277   1.344       .  A
C277        C278   1.381       .  A
C277        H280   1.082       .  S
C278        C279   1.387       .  A
C278        C302   1.474   1_554  S
C279        H281   1.082       .  S
N282        N283   1.322       .  A
N282        C286   1.343       .  A
N283        C284   1.345       .  A
C284        C285   1.384       .  A
C284        H287   1.082       .  S
C285        C286   1.381       .  A
C285        C403   1.474       .  S
C286        H288   1.082       .  S
N289        N290   1.323       .  A
N289        C293   1.345       .  A
N289       Cu297   2.073       .  S
N290        C291   1.346       .  A
N290       Cu296   2.084       .  S
C291        C292   1.385       .  A
C291        H294   1.082       .  S
C292        C293   1.383       .  A
C292        C445   1.480       .  S
C293        H295   1.082       .  S
Cu296       N299   2.085       .  S
Cu297       N307   2.073       .  S
Cu298       N300   2.069       .  S
Cu298       N306   2.069       .  S
N299        N300   1.323       .  A
N299        C303   1.346       .  A
N300        C301   1.345       .  A
C301        C302   1.382       .  A
C301        H304   1.082       .  S
C302        C303   1.386       .  A
C303        H305   1.082       .  S
N306        N307   1.321       .  A
N306        C310   1.344       .  A
N307        C308   1.345       .  A
C308        C309   1.387       .  A
C308        H311   1.081       .  S
C309        C310   1.385       .  A
C309        C417   1.484       .  S
C310        H312   1.082       .  S
N313        N314   1.321       .  A
N313        C317   1.343       .  A
N313       Cu321   2.066       .  S
N314        C315   1.347       .  A
N314       Cu320   2.079       .  S
C315        C316   1.387       .  A
C315        H318   1.082       .  S
C316        C317   1.384       .  A
C316        C386   1.482       .  S
C317        H319   1.082       .  S
Cu320       N323   2.079       .  S
Cu321       N331   2.066       .  S
Cu322       N324   2.074       .  S
Cu322       N330   2.074       .  S
N323        N324   1.324       .  A
N323        C327   1.346       .  A
N324        C325   1.345       .  A
C325        C326   1.382       .  A
C325        H328   1.082       .  S
C326        C327   1.382       .  A
C327        H329   1.082       .  S
N330        N331   1.321       .  A
N330        C334   1.345       .  A
N331        C332   1.343       .  A
C332        C333   1.384       .  A
C332        H335   1.082       .  S
C333        C334   1.386       .  A
C333        C400   1.480       .  S
C334        H336   1.082       .  S
N337        N338   1.323       .  A
N337        C341   1.345       .  A
N337       Cu345   2.073       .  S
N338        C339   1.348       .  A
N338       Cu344   2.091       .  S
C339        C340   1.385       .  A
C339        H342   1.082       .  S
C340        C341   1.382       .  A
C340        C543   1.479       .  S
C341        H343   1.082       .  S
Cu344       N347   2.091       .  S
Cu345       N355   2.072       .  S
Cu346       N348   2.075       .  S
Cu346       N354   2.074       .  S
N347        N348   1.323       .  A
N347        C351   1.347       .  A
N348        C349   1.346       .  A
C349        C350   1.383       .  A
C349        H352   1.082       .  S
C350        C351   1.387       .  A
C350        C374   1.478       .  S
C351        H353   1.082       .  S
N354        N355   1.321       .  A
N354        C358   1.344       .  A
N355        C356   1.345       .  A
C356        C357   1.387       .  A
C356        H359   1.082       .  S
C357        C358   1.386       .  A
C357        C431   1.485       .  S
C358        H360   1.081       .  S
N361        N362   1.323       .  A
N361        C365   1.344       .  A
N361       Cu369   2.068       .  S
N362        C363   1.347       .  A
N362       Cu368   2.090       .  S
C363        C364   1.386       .  A
C363        H366   1.082       .  S
C364        C365   1.381       .  A
C364        C389   1.478       .  S
C365        H367   1.082       .  S
Cu368       N371   2.090       .  S
Cu369       N379   2.068       .  S
Cu370       N372   2.079       .  S
Cu370       N378   2.079       .  S
N371        N372   1.323       .  A
N371        C375   1.348       .  A
N372        C373   1.346       .  A
C373        C374   1.383       .  A
C373        H376   1.082       .  S
C374        C375   1.387       .  A
C375        H377   1.082       .  S
N378        N379   1.321       .  A
N378        C382   1.345       .  A
N379        C380   1.344       .  A
C380        C381   1.386       .  A
C380        H383   1.081       .  S
C381        C382   1.388       .  A
C381        C599   1.485       .  S
C382        H384   1.082       .  S
C385        C386   1.404       .  A
C385        C390   1.402       .  A
C385        H392   1.084       .  S
C386        C387   1.411       .  A
C387        C388   1.402       .  A
C387        N394   1.432       .  S
C388        C389   1.401       .  A
C388        H393   1.084       .  S
C389        C390   1.414       .  A
C390        N391   1.432       .  S
N391        H395   1.044       .  S
N391        H396   1.046       .  S
N394        H397   1.046       .  S
N394        H398   1.046       .  S
C399        C400   1.404       .  A
C399        C404   1.402       .  A
C399        H406   1.084       .  S
C400        C401   1.415       .  A
C401        C402   1.406       .  A
C401        N408   1.438       .  S
C402        C403   1.402       .  A
C402        H407   1.084       .  S
C403        C404   1.406       .  A
C404        N405   1.432       .  S
N405        H409   1.046       .  S
N405        H410   1.046       .  S
N408        H411   1.046       .  S
N408        H412   1.046       .  S
C413        C414   1.405       .  A
C413        C418   1.405       .  A
C413        H420   1.083       .  S
C414        C415   1.416       .  A
C415        C416   1.400       .  A
C415        N422   1.432       .  S
C416        C417   1.404       .  A
C416        H421   1.084       .  S
C417        C418   1.412       .  A
C418        N419   1.438       .  S
N419        H423   1.046       .  S
N419        H424   1.046       .  S
N422        H425   1.045       .  S
N422        H426   1.042       .  S
C427        C428   1.403       .  A
C427        C432   1.406       .  A
C427        H434   1.083       .  S
C428        C429   1.414       .  A
C429        C430   1.406       .  A
C429        N436   1.438       .  S
C430        C431   1.403       .  A
C430        H435   1.083       .  S
C431        C432   1.413       .  A
C432        N433   1.437       .  S
N433        H437   1.046       .  S
N433        H438   1.046       .  S
N436        H439   1.046       .  S
N436        H440   1.046       .  S
C441        C442   1.402       .  A
C441        C446   1.407       .  A
C441        H448   1.084       .  S
C442        C443   1.414       .  A
C443        C444   1.398       .  A
C443        N450   1.433       .  S
C444        C445   1.402       .  A
C444        H449   1.084       .  S
C445        C446   1.413       .  A
C446        N447   1.437       .  S
N447        H451   1.046       .  S
N447        H452   1.046       .  S
N450        H453   1.045       .  S
N450        H454   1.043       .  S
C455        C456   1.402       .  A
C455        C460   1.406       .  A
C455        H462   1.084       .  S
C456        C457   1.412       .  A
C457        C458   1.401       .  A
C457        N464   1.432       .  S
C458        C459   1.405       .  A
C458        H463   1.084       .  S
C459        C460   1.413       .  A
C460        N461   1.438       .  S
N461        H465   1.046       .  S
N461        H466   1.046       .  S
N464        H467   1.046       .  S
N464        H468   1.044       .  S
C469        C470   1.404       .  A
C469        C474   1.404       .  A
C469        H476   1.084       .  S
C470        C471   1.416       .  A
C471        C472   1.403       .  A
C471        N478   1.432       .  S
C472        C473   1.405       .  A
C472        H477   1.084       .  S
C473        C474   1.411       .  A
C474        N475   1.438       .  S
N475        H479   1.046       .  S
N475        H480   1.046       .  S
N478        H481   1.046       .  S
N478        H482   1.043       .  S
C483        C484   1.405       .  A
C483        C488   1.408       .  A
C483        H490   1.083       .  S
C484        C485   1.412       .  A
C485        C486   1.403       .  A
C485        N492   1.438       .  S
C486        C487   1.404       .  A
C486        H491   1.083       .  S
C487        C488   1.413       .  A
C488        N489   1.437       .  S
N489        H493   1.046       .  S
N489        H494   1.046       .  S
N492        H495   1.046       .  S
N492        H496   1.046       .  S
C497        C498   1.403       .  A
C497        C502   1.403       .  A
C497        H504   1.084       .  S
C498        C499   1.414       .  A
C499        C500   1.398       .  A
C499        N506   1.432       .  S
C500        C501   1.404       .  A
C500        H505   1.084       .  S
C501        C502   1.413       .  A
C502        N503   1.438       .  S
N503        H507   1.046       .  S
N503        H508   1.046       .  S
N506        H509   1.045       .  S
N506        H510   1.043       .  S
C511        C512   1.402       .  A
C511        C516   1.403       .  A
C511        H518   1.084       .  S
C512        C513   1.410       .  A
C513        C514   1.405       .  A
C513        N520   1.438       .  S
C514        C515   1.404       .  A
C514        H519   1.083       .  S
C515        C516   1.409       .  A
C516        N517   1.432       .  S
N517        H521   1.046       .  S
N517        H522   1.046       .  S
N520        H523   1.046       .  S
N520        H524   1.046       .  S
C525        C526   1.405       .  A
C525        C530   1.406       .  A
C525        H532   1.084       .  S
C526        C527   1.415       .  A
C527        C528   1.399       .  A
C527        N534   1.432       .  S
C528        C529   1.404       .  A
C528        H533   1.084       .  S
C529        C530   1.413       .  A
C530        N531   1.438       .  S
N531        H535   1.046       .  S
N531        H536   1.046       .  S
N534        H537   1.046       .  S
N534        H538   1.043       .  S
C539        C540   1.403       .  A
C539        C544   1.401       .  A
C539        H546   1.084       .  S
C540        C541   1.414       .  A
C541        C542   1.407       .  A
C541        N548   1.438       .  S
C542        C543   1.401       .  A
C542        H547   1.084       .  S
C543        C544   1.414       .  A
C544        N545   1.432       .  S
N545        H549   1.044       .  S
N545        H550   1.045       .  S
N548        H551   1.046       .  S
N548        H552   1.046       .  S
C553        C554   1.401       .  A
C553        C558   1.404       .  A
C553        H560   1.084       .  S
C554        C555   1.414       .  A
C555        C556   1.401       .  A
C555        N562   1.432       .  S
C556        C557   1.403       .  A
C556        H561   1.084       .  S
C557        C558   1.411       .  A
C558        N559   1.432       .  S
N559        H563   1.046       .  S
N559        H564   1.046       .  S
N562        H565   1.046       .  S
N562        H566   1.044       .  S
C567        C568   1.404       .  A
C567        C572   1.408       .  A
C567        H574   1.084       .  S
C568        C569   1.409       .  A
C569        C570   1.400       .  A
C569        N576   1.432       .  S
C570        C571   1.402       .  A
C570        H575   1.084       .  S
C571        C572   1.412       .  A
C572        N573   1.437       .  S
N573        H577   1.046       .  S
N573        H578   1.046       .  S
N576        H579   1.046       .  S
N576        H580   1.046       .  S
C581        C582   1.404       .  A
C581        C586   1.402       .  A
C581        H588   1.084       .  S
C582        C583   1.409       .  A
C583        C584   1.404       .  A
C583        N590   1.432       .  S
C584        C585   1.403       .  A
C584        H589   1.084       .  S
C585        C586   1.418       .  A
C586        N587   1.439       .  S
N587        H591   1.046       .  S
N587        H592   1.042       .  S
N590        H593   1.046       .  S
N590        H594   1.046       .  S
C595        C596   1.402       .  A
C595        C600   1.405       .  A
C595        H602   1.084       .  S
C596        C597   1.412       .  A
C597        C598   1.399       .  A
C597        N604   1.432       .  S
C598        C599   1.405       .  A
C598        H603   1.083       .  S
C599        C600   1.412       .  A
C600        N601   1.432       .  S
N601        H605   1.046       .  S
N601        H606   1.046       .  S
N604        H607   1.046       .  S
N604        H608   1.044       .  S
