geometry optimzed in LAMMPS
_audit_creation_date              2020-11-30 
_audit_creation_method            'lammps2cif' 
_symmetry_space_group_name_H-M    'P1' 
_symmetry_Int_Tables_number       1 
_symmetry_cell_setting            triclinic 
loop_ 
_symmetry_equiv_pos_as_xyz 
  x,y,z 
_cell_length_a                    48.93723056 
_cell_length_b                    48.094988016385535 
_cell_length_c                    47.74857550240732 
_cell_angle_alpha                 90.01208812070284 
_cell_angle_beta                  90.33685813731093 
_cell_angle_gamma                 120.11298412544593 
loop_ 
_atom_site_label 
_atom_site_type_symbol 
_atom_site_fract_x 
_atom_site_fract_y 
_atom_site_fract_z 
_atom_site_charge 
O1          O  0.12593639  0.15425737  0.35071239    -0.87400
C2          C  0.12244785  0.23623091  0.36344734     0.88600
Mg3        Mg  0.12546361  0.13574861  0.30963373     1.58100
O4          O  0.05167032  0.16449147  0.37725915    -0.87200
O5          O  0.09849318  0.13819601  0.38931070    -0.74500
C6          C  0.00710981  0.13660261  0.24256038     0.93700
O7          O  0.15348717  0.21734438  0.31184770    -0.74300
O8          O  0.03419573  0.14033075  0.23732792    -0.81800
Mg9        Mg  0.15908544  0.20508412  0.35716343     1.58000
C10         C  0.46624553  0.15267011  0.34164776     0.93600
O11         O  0.17162171  0.19969051  0.40269966    -0.80100
H12         H  0.02798619  0.12380005  0.39902499    -0.05400
C13         C  0.05637769  0.20259949  0.29959218     0.88500
O14         O  0.07237281  0.09965794  0.31206987    -0.74600
O15         O  0.12102193  0.21090094  0.37063218    -0.87300
O16         O  0.48920846  0.17246957  0.35686789    -0.80200
C17         C  0.06377806  0.22694756  0.42322333     0.93700
C18         C  0.16196763  0.19955883  0.42748959     0.93500
Mg19       Mg  0.01057207  0.13189269  0.31263594     1.58000
O20         O  0.99811072  0.13722321  0.26741670    -0.80100
O21         O  0.01566404  0.11963570  0.35796951    -0.74300
O22         O  0.08529678  0.21947937  0.42423516    -0.80200
O23         O  0.19956209  0.19942993  0.34277604    -0.81900
O24         O  0.08436993  0.11669509  0.24489738    -0.80200
C25         C  0.03145458  0.13577428  0.37910963     0.88000
O26         O  0.04868086  0.12579622  0.29913423    -0.87300
O27         O  0.04396910  0.18269795  0.31852583    -0.87400
O28         O  0.07065424  0.19813717  0.27952662    -0.74500
Mg29       Mg  0.09222493  0.18008129  0.40391033     1.58000
O30         O  0.04527036  0.22031218  0.40233267    -0.81900
H31         H  0.11340160  0.11174573  0.36810505    -0.05600
O32         O  0.11796153  0.17258001  0.29190023    -0.87100
H33         H  0.14105266  0.21387770  0.27085393    -0.05400
H34         H  0.02478128  0.07900005  0.30840048    -0.05600
C35         C  0.13778005  0.20149811  0.29052785     0.88000
C36         C  0.11310101  0.13403472  0.36935268     0.88500
C37         C  0.04752847  0.10057354  0.30626096     0.88600
H38         H  0.05594363  0.22483060  0.30062380    -0.05600
O39         O  0.09783565  0.23730870  0.35705441    -0.74600
Mg40       Mg  0.07708251  0.15618809  0.26533750     1.58000
H41         H  0.14530227  0.25773172  0.36157755    -0.05600
C42         C  0.20239975  0.18340755  0.32301646     0.93600
O43         O  0.12545597  0.11741609  0.26613402    -0.81800
C44         C  0.10655590  0.11012344  0.24542383     0.93600
O45         O  0.13457528  0.19518770  0.43231022    -0.81800
Mg46       Mg  0.04474666  0.20166203  0.35930272     1.58200
O47         O  0.17932137  0.16401635  0.30766321    -0.80100
O48         O  0.46916136  0.13584271  0.32265068    -0.81800
C49         C  0.14952271  0.09096168  0.18849773     0.03200
C50         C  0.14468340  0.05929611  0.18849582     0.03200
C51         C  0.15971460  0.05086226  0.16775732    -0.17300
C52         C  0.17820449  0.07258470  0.14654922     0.03200
C53         C  0.17971827  0.10267718  0.14514965     0.03200
C54         C  0.16621324  0.11174848  0.16648294    -0.17300
H55         H  0.16847943  0.13536553  0.16577398     0.05200
H56         H  0.15766312  0.02740408  0.16880158     0.05200
C57         C  0.40073775  0.06741722  0.19668816     0.03200
C58         C  0.43054458  0.09580840  0.19499421     0.03200
C59         C  0.43603921  0.11739472  0.17289887    -0.17300
C60         C  0.41223559  0.11194635  0.15325228     0.03200
C61         C  0.38197107  0.08430635  0.15586837     0.03200
C62         C  0.37672705  0.06256958  0.17760995    -0.17300
H63         H  0.35362139  0.04120761  0.17949494     0.05200
H64         H  0.45836707  0.13972889  0.17186271     0.05200
O65         O  0.05333466  0.36720793  0.30855497    -0.87400
C66         C  0.04277945  0.44632755  0.30358182     0.88600
Mg67       Mg  0.05201011  0.34226463  0.34695265     1.58100
O68         O  0.11933263  0.45792682  0.29381416    -0.87200
O69         O  0.07994050  0.38576028  0.27001464    -0.74500
C70         C  0.15287757  0.45545177  0.43141297     0.93700
O71         O  0.01485660  0.38754133  0.34992955    -0.74300
O72         O  0.12725575  0.42875072  0.43442679    -0.81800
Mg73       Mg  0.01522575  0.37796729  0.30289223     1.58000
C74         C  0.19250208  0.03194697  0.34154858     0.93600
O75         O  0.00720298  0.36774452  0.25579307    -0.80100
H76         H  0.14870832  0.44810895  0.27283959    -0.05400
C77         C  0.10143772  0.47293310  0.37644750     0.88500
O78         O  0.10554586  0.36523403  0.34992583    -0.74600
O79         O  0.04943216  0.42653220  0.29450758    -0.87300
O80         O  0.16916105  0.02734769  0.32669103    -0.80200
C81         C  0.11147485  0.51388411  0.25388022     0.93700
C82         C  0.01608415  0.38232733  0.23241456     0.93500
Mg83       Mg  0.15382640  0.45988485  0.36187334     1.58000
O84         O  0.16051951  0.47052768  0.40829989    -0.80100
O85         O  0.15517714  0.45074529  0.31493896    -0.74300
O86         O  0.09310888  0.48481045  0.24596631    -0.80200
O87         O  0.47922758  0.32540484  0.30736974    -0.81900
O88         O  0.07799853  0.35362238  0.41915281    -0.80200
C89         C  0.14150633  0.45256099  0.29291833     0.88000
O90         O  0.11992295  0.41106344  0.36992617    -0.87300
O91         O  0.11534023  0.46977119  0.35635059    -0.87400
O92         O  0.08900289  0.45135016  0.39499957    -0.74500
Mg93       Mg  0.08318314  0.43453740  0.26192463     1.58000
O94         O  0.12143328  0.02070583  0.28248142    -0.81900
H95         H  0.06900305  0.34259907  0.28672276    -0.05600
O96         O  0.05013535  0.37965498  0.37135176    -0.87100
H97         H  0.02136249  0.39054430  0.39202699    -0.05400
H98         H  0.15080334  0.39662399  0.36135048    -0.05600
C99         C  0.02835284  0.38562578  0.37204156     0.88000
C100        C  0.06723942  0.36404570  0.28845273     0.88500
C101        C  0.12651893  0.39118963  0.36091885     0.88600
H102        H  0.09944896  0.49425670  0.37807057    -0.05600
O103        O  0.06353756  0.47193675  0.31517633    -0.74600
Mg104      Mg  0.08651344  0.40298525  0.40286361     1.58000
H105        H  0.01852848  0.44098651  0.30284406    -0.05600
C106        C  0.47748242  0.30419807  0.32414996     0.93600
O107        O  0.04762430  0.31631908  0.38771060    -0.81800
C108        C  0.05869087  0.32441814  0.41243530     0.93600
O109        O  0.04248408  0.40843538  0.22969200    -0.81800
Mg110      Mg  0.11694849  0.49505338  0.31861478     1.58200
O111        O  0.49981748  0.30885319  0.34049550    -0.80100
O112        O  0.19208273  0.01018660  0.35685784    -0.81800
O113        O  0.31340662  0.36283671  0.34199019    -0.87400
C114        C  0.35538302  0.43642632  0.39891587     0.88600
Mg115      Mg  0.33643906  0.35905177  0.30442745     1.58100
O116        O  0.29434381  0.43266257  0.35649031    -0.87200
O117        O  0.26961647  0.35839002  0.35789270    -0.74500
C118        C  0.39292137  0.50348046  0.24829866     0.93700
O119        O  0.38651623  0.40373863  0.35660857    -0.74300
O120        O  0.39962562  0.48113902  0.24538904    -0.81800
Mg121      Mg  0.33979451  0.37151949  0.38014597     1.58000
C122        C  0.31783992  0.01939733  0.31736741     0.93600
O123        O  0.29726468  0.33773977  0.40720878    -0.80100
H124        H  0.25006950  0.40919571  0.34161598    -0.05400
C125        C  0.38521004  0.49035586  0.32839312     0.88500
O126        O  0.30959112  0.37626635  0.27687026    -0.74600
O127        O  0.33344097  0.41175943  0.38849910    -0.87300
O128        O  0.30991613  0.00390515  0.34024501    -0.80200
C129        C  0.29601140  0.46610809  0.42395230     0.93700
C130        C  0.27983131  0.34028593  0.42552503     0.93500
Mg131      Mg  0.33019951  0.46694664  0.28953645     1.58000
O132        O  0.37437160  0.00109721  0.26375434    -0.80100
O133        O  0.28318643  0.43365919  0.31199204    -0.74300
O134        O  0.29264246  0.43798078  0.42427076    -0.80200
O135        O  0.34312639  0.32737755  0.37194129    -0.81900
O136        O  0.38280905  0.40434254  0.24553856    -0.80200
C137        C  0.27484742  0.42473568  0.33713692     0.88000
O138        O  0.33810582  0.42831902  0.28045604    -0.87300
O139        O  0.35604460  0.47623347  0.32794442    -0.87400
O140        O  0.40048394  0.48136856  0.31300863    -0.74500
Mg141      Mg  0.28461358  0.39954910  0.39015692     1.58000
O142        O  0.30707755  0.48442335  0.40278162    -0.81900
H143        H  0.27091974  0.32810623  0.32891526    -0.05600
O144        O  0.37585863  0.40669296  0.31229371    -0.87100
H145        H  0.42005412  0.42824547  0.32730936    -0.05400
H146        H  0.30057715  0.40691923  0.25490168    -0.05600
C147        C  0.39514611  0.41333393  0.33163807     0.88000
C148        C  0.28425116  0.34882330  0.34228644     0.88500
C149        C  0.31582995  0.40418811  0.26974473     0.88600
H150        H  0.39801240  0.51064015  0.34233253    -0.05600
O151        O  0.35971346  0.46395746  0.39252569    -0.74600
Mg152      Mg  0.38761390  0.44179383  0.27960785     1.58000
H153        H  0.37148242  0.43457583  0.41337774    -0.05600
C154        C  0.35238099  0.31916445  0.35045646     0.93600
O155        O  0.35956974  0.35518129  0.26437626    -0.81800
C156        C  0.37455837  0.37451917  0.24453389     0.93600
O157        O  0.27461452  0.36367716  0.42545356    -0.81800
Mg158      Mg  0.33223457  0.48050367  0.36435384     1.58200
O159        O  0.36055807  0.33575421  0.32815208    -0.80100
O160        O  0.32795976  0.01090973  0.29676191    -0.81800
C161        C  0.44240106  0.34687688  0.18793219     0.03200
C162        C  0.41736341  0.35372404  0.18727313     0.03200
C163        C  0.39811460  0.34518587  0.16316986    -0.17300
C164        C  0.40127847  0.32766942  0.14114445     0.03200
C165        C  0.42356610  0.31702509  0.14353675     0.03200
C166        C  0.44432933  0.32769648  0.16665211    -0.17300
H167        H  0.46223224  0.32076943  0.16825073     0.05200
H168        H  0.38037936  0.35232032  0.16143680     0.05200
O169        O  0.18760675  0.46969476  0.99265491    -0.87400
C170        C  0.26111897  0.01413193  0.93895746     0.88600
Mg171      Mg  0.18588649  0.49251429  0.03043830     1.58100
O172        O  0.25724686  0.45015145  0.98097732    -0.87200
O173        O  0.18339580  0.42426824  0.97948718    -0.74500
C174        C  0.33055976  0.05679150  0.08947436     0.93700
O175        O  0.22886806  0.04554364  0.98095411    -0.74300
O176        O  0.30643926  0.06034988  0.09120833    -0.81800
Mg177      Mg  0.19742784  0.99862502  0.95643449     1.58000
C178        C  0.34510282  0.47203455  0.01702829     0.93600
O179        O  0.16485536  0.45629161  0.92664264    -0.80100
H180        H  0.23615827  0.40501236  0.99527400    -0.05400
C181        C  0.31657996  0.04614985  0.00852256     0.88500
O182        O  0.20421248  0.46461713  0.05591815    -0.74600
O183        O  0.23669642  0.99158865  0.94875390    -0.87300
O184        O  0.32641826  0.46113724  0.99606644    -0.80200
C185        C  0.28716426  0.45222591  0.91204632     0.93700
C186        C  0.16452599  0.43473659  0.91095608     0.93500
Mg187      Mg  0.29536303  0.48728844  0.04721898     1.58000
O188        O  0.33174681  0.03736198  0.07210999    -0.80100
O189        O  0.26228464  0.43883872  0.02462401    -0.74300
O190        O  0.25942964  0.44820922  0.91334391    -0.80200
O191        O  0.15427094  0.00303659  0.96513604    -0.81900
O192        O  0.23025839  0.03833637  0.09164386    -0.80200
C193        C  0.25128441  0.43027381  0.99985728     0.88000
O194        O  0.25595888  0.49385409  0.05620362    -0.87300
O195        O  0.30437399  0.01659444  0.00929911    -0.87400
O196        O  0.30652101  0.06083633  0.02369009    -0.74500
Mg197      Mg  0.22308982  0.43926055  0.94761668     1.58000
O198        O  0.30606032  0.46193549  0.93288194    -0.81900
H199        H  0.15299682  0.42731382  0.00632156    -0.05600
O200        O  0.23271499  0.03315941  0.02442478    -0.87100
H201        H  0.25294170  0.07866288  0.01130197    -0.05400
H202        H  0.23270518  0.45276872  0.07755014    -0.05600
C203        C  0.23858878  0.05347166  0.00603814     0.88000
C204        C  0.17354076  0.44003980  0.99318464     0.88500
C205        C  0.23123379  0.47006751  0.06411321     0.88600
H206        H  0.33605720  0.05979378  0.99447453    -0.05600
O207        O  0.28827242  0.01864014  0.94553900    -0.74600
Mg208      Mg  0.26757978  0.04604896  0.05719883     1.58000
H209        H  0.25937362  0.03078502  0.92487889    -0.05600
C210        C  0.14624561  0.01199021  0.98708465     0.93600
O211        O  0.18208985  0.01335790  0.07221899    -0.81800
C212        C  0.20055401  0.02822099  0.09249423     0.93600
O213        O  0.18546831  0.42649494  0.91314792    -0.81800
Mg214      Mg  0.30647724  0.99143394  0.97252041     1.58200
O215        O  0.16153087  0.01753394  0.01006213    -0.80100
O216        O  0.33864997  0.48358720  0.03813793    -0.81800
O217        O  0.28965645  0.30492282  0.99018364    -0.87400
C218        C  0.25110344  0.23017558  0.93557331     0.88600
Mg219      Mg  0.31661610  0.30491708  0.02631116     1.58100
O220        O  0.19914363  0.23758302  0.98127184    -0.87200
O221        O  0.25012601  0.31185070  0.97937450    -0.74500
C222        C  0.22898366  0.16461004  0.08863795     0.93700
O223        O  0.31678542  0.25955103  0.97282103    -0.74300
O224        O  0.25792456  0.18521780  0.08490279    -0.81800
Mg225      Mg  0.30342251  0.29399948  0.95082186     1.58000
C226        C  0.13105610  0.14982235  0.01868116     0.93600
O227        O  0.29533247  0.32874616  0.92368632    -0.80100
H228        H  0.17810052  0.26081346  0.99650540    -0.05400
C229        C  0.22586811  0.17291378  0.00565703     0.88500
O230        O  0.27362323  0.28970691  0.05481634    -0.74600
O231        O  0.25583593  0.25624907  0.94488560    -0.87300
O232        O  0.13882544  0.16900700  0.99802324    -0.80200
C233        C  0.16536074  0.20725296  0.91378108     0.93700
C234        C  0.27392604  0.33010208  0.90950741     0.93500
Mg235      Mg  0.19818042  0.19888662  0.04705464     1.58000
O236        O  0.20715872  0.16463139  0.07395623    -0.80100
O237        O  0.18480394  0.23349342  0.02514468    -0.74300
O238        O  0.18979279  0.23514655  0.91392019    -0.80200
O239        O  0.35140958  0.33618254  0.95817605    -0.81900
O240        O  0.31295015  0.25713268  0.08323335    -0.80200
C241        C  0.18696239  0.24464673  0.00056621     0.88000
O242        O  0.24596645  0.23705345  0.05301877    -0.87300
O243        O  0.21209998  0.18835942  0.00794445    -0.87400
O244        O  0.25180685  0.18163925  0.01825413    -0.74500
Mg245      Mg  0.22114635  0.27169000  0.94756671     1.58000
O246        O  0.15744207  0.18852369  0.93470867    -0.81900
H247        H  0.28571121  0.34136330  0.00571857    -0.05600
O248        O  0.30283506  0.25599998  0.01676818    -0.87100
H249        H  0.32401522  0.23283735  0.00169998    -0.05400
H250        H  0.23386541  0.26289037  0.07743539    -0.05600
C251        C  0.31500057  0.24885628  0.99751737     0.88000
C252        C  0.27593487  0.32046258  0.99221485     0.88500
C253        C  0.25050574  0.26295582  0.06260386     0.88600
H254        H  0.21603840  0.15203733  0.99212004    -0.05600
O255        O  0.22796438  0.20359723  0.94365856    -0.74600
Mg256      Mg  0.28090166  0.22178142  0.04995064     1.58000
H257        H  0.26756952  0.22993789  0.92071088    -0.05600
C258        C  0.36940971  0.34283586  0.97927399     0.93600
O259        O  0.34454988  0.30564996  0.06541360    -0.81800
C260        C  0.33673632  0.28524535  0.08517349     0.93600
O261        O  0.24477701  0.30959388  0.91286754    -0.81800
Mg262      Mg  0.18511697  0.18864548  0.97237600     1.58200
O263        O  0.36211857  0.32388421  0.00006878    -0.80100
O264        O  0.14943758  0.15597629  0.03952347    -0.81800
O265        O  0.49014662  0.28755729  0.97621328    -0.87400
C266        C  0.06517824  0.27587572  0.97691677     0.88600
Mg267      Mg  0.46850367  0.29102151  0.01384683     1.58100
O268        O  0.49057952  0.20969456  0.95647179    -0.87200
O269        O  0.47703231  0.26336962  0.93578005    -0.74500
C270        C  0.45048798  0.17008226  0.09216963     0.93700
O271        O  0.04290138  0.30916765  0.02511555    -0.74300
O272        O  0.45082537  0.19653388  0.09576462    -0.81800
Mg273      Mg  0.03886727  0.31848064  0.97803524     1.58000
C274        C  0.47199265  0.12472140  0.99191600     0.93600
O275        O  0.03953675  0.33236624  0.93126986    -0.80100
H276        H  0.45116834  0.18923320  0.93306080    -0.05400
C277        C  0.01509492  0.20695599  0.03813450     0.88500
O278        O  0.42813170  0.23901764  0.00954068    -0.74600
O279        O  0.04337445  0.27814411  0.96610790    -0.87300
O280        O  0.98599192  0.14518853  0.97039198    -0.80200
C281        C  0.05340533  0.21152946  0.91691256     0.93700
C282        C  0.04170214  0.32256600  0.90692945     0.93500
Mg283      Mg  0.45101848  0.17065954  0.02141324     1.58000
O284        O  0.45472987  0.16104640  0.06828663    -0.80100
O285        O  0.44386760  0.17642320  0.97409817    -0.74300
O286        O  0.05109306  0.23663712  0.91393672    -0.80200
O287        O  0.03307403  0.36084207  0.98947752    -0.81900
O288        O  0.44157877  0.25878889  0.08252480    -0.80200
C289        C  0.46167146  0.19172971  0.95357253     0.88000
O290        O  0.44535507  0.21086903  0.03158747    -0.87300
O291        O  0.99903577  0.19925671  0.01651630    -0.87400
O292        O  0.00898659  0.21990688  0.05843400    -0.74500
Mg293      Mg  0.01514768  0.25130696  0.93010657     1.58000
O294        O  0.04272837  0.19359741  0.93821826    -0.81900
H295        H  0.45375978  0.28368077  0.95377883    -0.05600
O296        O  0.99544119  0.27510630  0.04079360    -0.87100
H297        H  0.03375416  0.29429444  0.06555564    -0.05400
H298        H  0.40153799  0.19094924  0.01588588    -0.05600
C299        C  0.02417387  0.29291671  0.04479826     0.88000
C300        C  0.47299136  0.27878052  0.95525476     0.88500
C301        C  0.42394204  0.21265867  0.01938429     0.88600
H302        H  0.03483291  0.20286152  0.03970934    -0.05600
O303        O  0.06160358  0.24889860  0.98427137    -0.74600
Mg304      Mg  0.47465910  0.23965904  0.06644661     1.58000
H305        H  0.08746489  0.29747626  0.98107594    -0.05600
C306        C  0.01767152  0.36397950  0.00934861     0.93600
O307        O  0.44572716  0.29581001  0.05216055    -0.81800
C308        C  0.43716129  0.28198671  0.07562345     0.93600
O309        O  0.03781532  0.29473344  0.90268074    -0.81800
Mg310      Mg  0.02119353  0.19706510  0.97827924     1.58200
O311        O  0.50406801  0.34341734  0.02039003    -0.80100
O312        O  0.45807569  0.12844831  0.01265823    -0.81800
O313        O  0.14214495  0.02783625  0.66981879    -0.87400
C314        C  0.18907927  0.08700209  0.73369275     0.88600
Mg315      Mg  0.16330457  0.03075847  0.63010313     1.58100
O316        O  0.13416230  0.10007989  0.69632192    -0.87200
O317        O  0.09932582  0.02457521  0.68600203    -0.74500
C318        C  0.23093999  0.18217932  0.58899888     0.93700
O319        O  0.21488682  0.06091251  0.68410050    -0.74300
O320        O  0.23422276  0.15772235  0.58520288    -0.81800
Mg321      Mg  0.16746986  0.02648039  0.70586849     1.58000
C322        C  0.16068666  0.19336156  0.67760268     0.93600
O323        O  0.12110085  0.48981917  0.73233235    -0.80100
H324        H  0.09016529  0.08588827  0.68334222    -0.05400
C325        C  0.22628354  0.15876439  0.67007257     0.88500
O326        O  0.13991116  0.05724560  0.61097911    -0.74600
O327        O  0.16440918  0.06568697  0.72284883    -0.87300
O328        O  0.15473991  0.17375293  0.69740171    -0.80200
C329        C  0.13598223  0.11990838  0.76798295     0.93700
C330        C  0.10442043  0.99198749  0.74968587     0.93500
Mg331      Mg  0.17180559  0.14811035  0.63486484     1.58000
O332        O  0.21586545  0.18429334  0.60985288    -0.80100
O333        O  0.12411535  0.11435604  0.65572267    -0.74300
O334        O  0.12374881  0.09017826  0.76213007    -0.80200
O335        O  0.16505752  0.48217214  0.68546640    -0.81900
O336        O  0.21226457  0.08286117  0.57600253    -0.80200
C337        C  0.11514747  0.09968535  0.67893951     0.88000
O338        O  0.17375862  0.10829547  0.61743522    -0.87300
O339        O  0.19730594  0.14625701  0.67055831    -0.87400
O340        O  0.23962269  0.15060754  0.65179848    -0.74500
Mg341      Mg  0.11688908  0.05926754  0.72318312     1.58000
O342        O  0.15495204  0.14184757  0.75182018    -0.81900
H343        H  0.09963333  0.99751923  0.65354558    -0.05600
O344        O  0.20551724  0.07464898  0.64281961    -0.87100
H345        H  0.24932969  0.08995728  0.65703241    -0.05400
H346        H  0.13381388  0.09303616  0.59551703    -0.05600
C347        C  0.22425759  0.07569124  0.66088798     0.88000
C348        C  0.11322483  0.01557079  0.66919554     0.88500
C349        C  0.14895019  0.08668578  0.60707212     0.88600
H350        H  0.24048455  0.17671324  0.68559298    -0.05600
O351        O  0.19877004  0.11655477  0.72969197    -0.74600
Mg352      Mg  0.22091027  0.11514102  0.61470839     1.58000
H353        H  0.20369069  0.08024536  0.74560402    -0.05600
C354        C  0.17581827  0.47970989  0.66202772     0.93600
O355        O  0.18327149  0.03160262  0.58865104    -0.81800
C356        C  0.20052701  0.05291413  0.57126114     0.93600
O357        O  0.09957984  0.01561188  0.75075362    -0.81800
Mg358      Mg  0.17591150  0.14330313  0.71040800     1.58200
O359        O  0.18364376  0.50048891  0.64290466    -0.80100
O360        O  0.17055978  0.19030735  0.65389533    -0.81800
C361        C  0.06432430  0.15836612  0.86351121     0.03200
C362        C  0.09457476  0.16177976  0.86489082     0.03200
C363        C  0.10433672  0.14867368  0.84368196    -0.17300
C364        C  0.08467092  0.13232760  0.82067242     0.03200
C365        C  0.05410442  0.12872033  0.81935324     0.03200
C366        C  0.04417092  0.14128465  0.84108950    -0.17300
H367        H  0.02065110  0.13818878  0.84031143     0.05200
H368        H  0.12682844  0.14972926  0.84618201     0.05200
C369        C  0.07059785  0.39573750  0.85901705     0.03200
C370        C  0.10098436  0.42290827  0.85649486     0.03200
C371        C  0.10930326  0.44047598  0.83149291    -0.17300
C372        C  0.08792263  0.43184687  0.80894921     0.03200
C373        C  0.05683821  0.40535547  0.81188183     0.03200
C374        C  0.04870860  0.38750777  0.83686357    -0.17300
H375        H  0.02538206  0.36657587  0.83892464     0.05200
H376        H  0.13280295  0.46122942  0.82956703     0.05200
O377        O  0.47477084  0.11485163  0.66429743    -0.87400
C378        C  0.41780153  0.10343607  0.73019583     0.88600
Mg379      Mg  0.47201615  0.13628865  0.62512737     1.58100
O380        O  0.40417229  0.03493285  0.69223972    -0.87200
O381        O  0.47754844  0.07465997  0.68207893    -0.74500
C382        C  0.32211181  0.05657133  0.58648073     0.93700
O383        O  0.44467195  0.15752832  0.68065614    -0.74300
O384        O  0.34687508  0.08379133  0.58291793    -0.81800
Mg385      Mg  0.47779613  0.14169200  0.70108539     1.58000
C386        C  0.31180613  0.47192064  0.66805514     0.93600
O387        O  0.01263649  0.12989461  0.72927001    -0.80100
H388        H  0.41789607  0.00508948  0.67718822    -0.05400
C389        C  0.34833400  0.07303825  0.66779075     0.88500
O390        O  0.44482179  0.08658802  0.60421176    -0.74600
O391        O  0.43825460  0.10004999  0.71819165    -0.87300
O392        O  0.33282348  0.48257109  0.68690492    -0.80200
C393        C  0.38527844  0.01562631  0.76409430     0.93700
C394        C  0.51107534  0.11272035  0.74587113     0.93500
Mg395      Mg  0.35571208  0.02779281  0.63078153     1.58000
O396        O  0.31992846  0.03787540  0.60645303    -0.80100
O397        O  0.38911270  0.01208946  0.65088480    -0.74300
O398        O  0.41395893  0.03709832  0.76006917    -0.80200
O399        O  0.01832761  0.18293701  0.68767465    -0.81900
O400        O  0.41953025  0.13229622  0.57136369    -0.80200
C401        C  0.40427063  0.01685656  0.67383567     0.88000
O402        O  0.39518908  0.06938647  0.61343434    -0.87300
O403        O  0.35931849  0.05490145  0.66742314    -0.87400
O404        O  0.35640730  0.09504236  0.64966159    -0.74500
Mg405      Mg  0.44410847  0.05855992  0.72003463     1.58000
O406        O  0.36373413  0.00997487  0.74636488    -0.81900
H407        H  0.50249687  0.09955800  0.64798663    -0.05600
O408        O  0.42990866  0.13501585  0.63917537    -0.87100
H409        H  0.41628018  0.16493588  0.65420203    -0.05400
H410        H  0.40870479  0.04450562  0.58931652    -0.05600
C411        C  0.42977507  0.15303441  0.65760268     0.88000
C412        C  0.48576808  0.09673205  0.66400295     0.88500
C413        C  0.41568325  0.06599798  0.60153664     0.88600
H414        H  0.33173120  0.07027736  0.68390820    -0.05600
O415        O  0.38864402  0.08287648  0.72755837    -0.74600
Mg416      Mg  0.38956547  0.11096495  0.61151505     1.58000
H417        H  0.42483482  0.12490782  0.74246316    -0.05600
C418        C  0.02255205  0.19875666  0.66534928     0.93600
O419        O  0.46971240  0.15932119  0.58534948    -0.81800
C420        C  0.44821787  0.15392006  0.56762498     0.93600
O421        O  0.48643661  0.08529165  0.74879919    -0.81800
Mg422      Mg  0.36204419  0.03330610  0.70642877     1.58200
O423        O  0.00320182  0.18826926  0.64507857    -0.80100
O424        O  0.31442013  0.48723269  0.64571363    -0.81800
O425        O  0.45317658  0.31923689  0.68824534    -0.87400
C426        C  0.45180425  0.40358772  0.69388991     0.88600
Mg427      Mg  0.45944810  0.29982680  0.64954337     1.58100
O428        O  0.37889264  0.33268823  0.70308592    -0.87200
O429        O  0.42271637  0.30602359  0.72499034    -0.74500
C430        C  0.35393061  0.30119138  0.56456909     0.93700
O431        O  0.48923951  0.38219441  0.64879976    -0.74300
O432        O  0.38136808  0.30457808  0.56277721    -0.81800
Mg433      Mg  0.48678508  0.37014218  0.69546789     1.58000
C434        C  0.30147105  0.32317274  0.65776936     0.93600
O435        O  0.49241545  0.36487277  0.74176187    -0.80100
H436        H  0.35198255  0.29168030  0.72359829    -0.05400
C437        C  0.39646430  0.36942115  0.62292536     0.88500
O438        O  0.40655009  0.26378004  0.64492094    -0.74600
O439        O  0.44817941  0.37762218  0.70194713    -0.87300
O440        O  0.32294671  0.34261102  0.67442739    -0.80200
C441        C  0.38496858  0.39665278  0.74469297     0.93700
C442        C  0.48215881  0.36845470  0.76503980     0.93500
Mg443      Mg  0.34808095  0.29928259  0.63453669     1.58000
O444        O  0.34263454  0.30377235  0.58773171    -0.80100
O445        O  0.34635323  0.28784478  0.68138838    -0.74300
O446        O  0.40652184  0.38957305  0.74892604    -0.80200
O447        O  0.02945762  0.36735006  0.69185254    -0.81900
O448        O  0.43089365  0.28190324  0.58027989    -0.80200
C449        C  0.35862925  0.30386043  0.70365101     0.88000
O450        O  0.38710014  0.29205826  0.62769696    -0.87300
O451        O  0.38143334  0.35015843  0.64168443    -0.87400
O452        O  0.41250532  0.36382417  0.60534151    -0.74500
Mg453      Mg  0.41572304  0.34910100  0.73421715     1.58000
O454        O  0.36879312  0.38920987  0.72207538    -0.81900
H455        H  0.43793111  0.27746175  0.70811148    -0.05600
O456        O  0.45660101  0.33739910  0.62723265    -0.87100
H457        H  0.48390337  0.37818706  0.60657602    -0.05400
H458        H  0.36032855  0.24483602  0.63439153    -0.05600
C459        C  0.47705930  0.36613000  0.62656888     0.88000
C460        C  0.43825976  0.30007530  0.70711540     0.88500
C461        C  0.38356378  0.26598466  0.63529595     0.88600
H462        H  0.39655747  0.39191436  0.62185248    -0.05600
O463        O  0.42883103  0.40578287  0.68421661    -0.74600
Mg464      Mg  0.42026003  0.32134615  0.59587110     1.58000
H465        H  0.47513139  0.42463420  0.69437848    -0.05600
C466        C  0.03408126  0.34940517  0.67554854     0.93600
O467        O  0.46786513  0.28186064  0.60789359    -0.81800
C468        C  0.45274924  0.27526890  0.58474905     0.93600
O469        O  0.45521701  0.36623036  0.76720144    -0.81800
Mg470      Mg  0.37583518  0.36998023  0.68043597     1.58200
O471        O  0.01339507  0.33033241  0.65818086    -0.80100
O472        O  0.30580905  0.30580445  0.64043215    -0.81800
C473        C  0.32235353  0.39405505  0.85337638     0.03200
C474        C  0.32507760  0.42447192  0.85724165     0.03200
C475        C  0.33621873  0.44691885  0.83521359    -0.17300
C476        C  0.34427142  0.43950429  0.80916585     0.03200
C477        C  0.34118091  0.40890068  0.80519663     0.03200
C478        C  0.33057851  0.38674473  0.82738674    -0.17300
H479        H  0.32855024  0.36343203  0.82432528     0.05200
H480        H  0.33806600  0.47013684  0.83825666     0.05200
C481        C  0.03104585  0.27867490  0.48362088     0.03200
C482        C  0.02151253  0.24572347  0.48014333     0.03200
C483        C  0.00361949  0.22335271  0.50075357    -0.17300
C484        C  0.49071926  0.22998285  0.52270675     0.03200
C485        C  0.50050738  0.26277312  0.52712503     0.03200
C486        C  0.02229626  0.28790596  0.50859638    -0.17300
H487        H  0.02912077  0.31291767  0.51165184     0.05200
H488        H  0.99774610  0.19857849  0.49796478     0.05200
C489        C  0.26237104  0.26849548  0.47264553     0.03200
C490        C  0.23728230  0.23636287  0.47253531     0.03200
C491        C  0.23341151  0.21658473  0.49564303    -0.17300
C492        C  0.25393372  0.22818883  0.51890382     0.03200
C493        C  0.27915732  0.26050304  0.51886773     0.03200
C494        C  0.28286000  0.28025527  0.49581424    -0.17300
H495        H  0.30214677  0.30493901  0.49569127     0.05200
H496        H  0.21448813  0.19172556  0.49537000     0.05200
C497        C  0.23144271  0.50389183  0.47144197     0.03200
C498        C  0.26190691  0.50724325  0.47045404     0.03200
C499        C  0.28443387  0.02387058  0.49419244    -0.17300
C500        C  0.27647003  0.03738599  0.51663474     0.03200
C501        C  0.24655220  0.03533573  0.51663969     0.03200
C502        C  0.22496540  0.01822669  0.49494217    -0.17300
H503        H  0.20257763  0.01759435  0.49382157     0.05200
H504        H  0.30785212  0.02670291  0.49358947     0.05200
O505        O  0.45219198  0.00423280  0.98158116    -0.87400
C506        C  0.01890758  0.05235665  0.04553895     0.88600
Mg507      Mg  0.42085265  0.45193852  0.97979569     1.58100
O508        O  0.05186795  0.04399513  0.98281231    -0.87200
O509        O  0.98965498  0.03958112  0.95697896    -0.74500
C510        C  0.01397644  0.39216430  0.01001411     0.93700
O511        O  0.44923504  0.98555584  0.04761090    -0.74300
O512        O  0.48833615  0.38842222  0.00986829    -0.81800
Mg513      Mg  0.45572895  0.02787063  0.02129045     1.58000
C514        C  0.11565911  0.01066030  0.98768424     0.93600
O515        O  0.45852944  0.07182670  0.00162057    -0.80100
H516        H  0.05911169  0.05219905  0.94178454    -0.05400
C517        C  0.03502567  0.47693093  0.04186166     0.88500
O518        O  0.45452109  0.44691328  0.94993006    -0.74600
O519        O  0.00661955  0.04879979  0.02222544    -0.87300
O520        O  0.11343592  0.03351767  0.99891872    -0.80200
C521        C  0.10300866  0.11764669  0.01619574     0.93700
C522        C  0.98072566  0.09862296  0.99109697     0.93500
Mg523      Mg  0.04033237  0.46319162  0.97972040     1.58000
O524        O  0.03604522  0.41867228  0.00073974    -0.80100
O525        O  0.04823873  0.50486784  0.95165150    -0.74300
O526        O  0.07701255  0.11431589  0.00670678    -0.80200
O527        O  0.40284062  0.00628701  0.02254029    -0.81900
O528        O  0.42251621  0.37957598  0.99068484    -0.80200
C529        C  0.05369652  0.03550020  0.95885197     0.88000
O530        O  0.49066525  0.44534979  0.97578843    -0.87300
O531        O  0.04363172  0.48862175  0.01832597    -0.87400
O532        O  0.50720382  0.45179173  0.04204825    -0.74500
Mg533      Mg  0.03143478  0.07403237  0.98467117     1.58000
O534        O  0.10687373  0.09380160  0.02122344    -0.81900
H535        H  0.44500774  0.00690683  0.94068880    -0.05600
O536        O  0.44507783  0.44838486  0.01662236    -0.87100
H537        H  0.43710957  0.43761144  0.05724351    -0.05400
H538        H  0.48900408  0.43990675  0.93422321    -0.05600
C539        C  0.44201757  0.45503665  0.04091111     0.88000
C540        C  0.46079260  0.01714919  0.95844921     0.88500
C541        C  0.47840183  0.44343887  0.95268613     0.88600
H542        H  0.05098227  0.48776210  0.05943230    -0.05600
O543        O  0.04233186  0.04838479  0.04938030    -0.74600
Mg544      Mg  0.46621602  0.41908293  0.01321754     1.58000
H545        H  0.00871899  0.05778969  0.06326492    -0.05600
C546        C  0.37924407  0.97950188  0.01527635     0.93600
O547        O  0.39071581  0.39828858  0.97792264    -0.81800
C548        C  0.39609686  0.37531486  0.98191729     0.93600
O549        O  0.00877088  0.10508742  0.98564710    -0.81800
Mg550      Mg  0.07455772  0.03991449  0.02055178     1.58200
O551        O  0.38067926  0.45468548  0.00287863    -0.80100
O552        O  0.09273295  0.48369003  0.97953069    -0.81800
O553        O  0.37043934  0.14993784  0.31146697    -0.87400
C554        C  0.30478363  0.11226077  0.37271849     0.88600
Mg555      Mg  0.40934572  0.19739715  0.31767933     1.58100
O556        O  0.28290747  0.13548039  0.31115907    -0.87200
O557        O  0.33150241  0.11993961  0.28294631    -0.74500
C558        C  0.35027985  0.28798240  0.34972024     0.93700
O559        O  0.38072900  0.16117160  0.37857131    -0.74300
O560        O  0.37511372  0.28629559  0.35202986    -0.81800
Mg561      Mg  0.36225717  0.11941523  0.34661189     1.58000
C562        C  0.23230161  0.18401286  0.32051708     0.93600
O563        O  0.34582970  0.07528841  0.31850177    -0.80100
H564        H  0.27321753  0.13108496  0.27006681    -0.05400
C565        C  0.30792140  0.19716007  0.37684034     0.88500
O566        O  0.38524328  0.21729462  0.28848619    -0.74600
O567        O  0.31656407  0.11399281  0.34947681    -0.87300
O568        O  0.23161899  0.15719223  0.31995897    -0.80200
C569        C  0.22080297  0.06337205  0.34043807     0.93700
C570        C  0.31899725  0.04999993  0.31629962     0.93500
Mg571      Mg  0.30686021  0.21804956  0.31746579     1.58000
O572        O  0.32350353  0.26360067  0.34410344    -0.80100
O573        O  0.28885068  0.17587682  0.28591132    -0.74300
O574        O  0.24707375  0.06454354  0.34008145    -0.80200
O575        O  0.41067860  0.12598629  0.34198001    -0.81900
O576        O  0.42288723  0.27307025  0.32661391    -0.80200
C577        C  0.28123762  0.14655563  0.28831097     0.88000
O578        O  0.35293838  0.22420858  0.31525804    -0.87300
O579        O  0.29820879  0.18748713  0.35283188    -0.87400
O580        O  0.33699753  0.21654841  0.38178618    -0.74500
Mg581      Mg  0.28887130  0.09435380  0.31263259     1.58000
O582        O  0.21875944  0.08865574  0.33931670    -0.81900
H583        H  0.37683418  0.14853634  0.27021249    -0.05600
O584        O  0.38604290  0.20141603  0.35347101    -0.87100
H585        H  0.39648883  0.20598570  0.39442020    -0.05400
H586        H  0.35777815  0.23512196  0.27445907    -0.05600
C587        C  0.38817962  0.19044898  0.37622437     0.88000
C588        C  0.36054983  0.13989157  0.28755987     0.88500
C589        C  0.36493069  0.22608348  0.29209650     0.88600
H590        H  0.29144635  0.18845697  0.39404197    -0.05600
O591        O  0.28408138  0.12054075  0.37629927    -0.74600
Mg592      Mg  0.38005162  0.24259103  0.35286674     1.58000
H593        H  0.31235028  0.10368250  0.39039959    -0.05600
C594        C  0.43644150  0.15243135  0.34345072     0.93600
O595        O  0.45013896  0.24770496  0.32529232    -0.81800
C596        C  0.44873202  0.27333783  0.32518946     0.93600
O597        O  0.29368592  0.05082200  0.31533131    -0.81800
Mg598      Mg  0.25948568  0.13961504  0.34671312     1.58200
O599        O  0.43733767  0.17936756  0.34384611    -0.80100
O600        O  0.25797413  0.21062721  0.32181549    -0.81800
O601        O  0.13063622  0.35194050  0.64859370    -0.87400
C602        C  0.19867806  0.39544162  0.70859257     0.88600
Mg603      Mg  0.09221881  0.30452414  0.65155846     1.58100
O604        O  0.22073062  0.37113641  0.64658688    -0.87200
O605        O  0.16740797  0.38345667  0.61962338    -0.74500
C606        C  0.15847596  0.22178962  0.68273818     0.93700
O607        O  0.12162233  0.34119630  0.71644333    -0.74300
O608        O  0.13197593  0.21979917  0.68672628    -0.81800
Mg609      Mg  0.13837675  0.38216739  0.68467539     1.58000
C610        C  0.27151503  0.32273537  0.65844683     0.93600
O611        O  0.15164560  0.42447607  0.65704029    -0.80100
H612        H  0.22873286  0.37467405  0.60534226    -0.05400
C613        C  0.19634034  0.31043829  0.71311411     0.88500
O614        O  0.11646478  0.28443958  0.62420980    -0.74600
O615        O  0.18547169  0.39043174  0.68560730    -0.87300
O616        O  0.27264675  0.34890635  0.66483601    -0.80200
C617        C  0.28308616  0.44184547  0.67228210     0.93700
C618        C  0.17733121  0.45095101  0.65659158     0.93500
Mg619      Mg  0.19643315  0.28944575  0.65349029     1.58000
O620        O  0.18389188  0.24849656  0.68251229    -0.80100
O621        O  0.21217380  0.32985280  0.62112496    -0.74300
O622        O  0.25745221  0.44204298  0.66940607    -0.80200
O623        O  0.08922039  0.37446910  0.68244519    -0.81900
O624        O  0.07640842  0.22953866  0.67100302    -0.80200
C625        C  0.22121600  0.35949350  0.62367834     0.88000
O626        O  0.14933337  0.28102651  0.65272444    -0.87300
O627        O  0.20489961  0.32044962  0.68913569    -0.87400
O628        O  0.16780918  0.28985200  0.71828776    -0.74500
Mg629      Mg  0.21152619  0.41034403  0.64758106     1.58000
O630        O  0.28415917  0.41665212  0.67765558    -0.81900
H631        H  0.12170285  0.35400267  0.60794449    -0.05600
O632        O  0.11341326  0.30025885  0.69073803    -0.87100
H633        H  0.10393059  0.29602158  0.73170921    -0.05400
H634        H  0.14424468  0.26618969  0.61294145    -0.05600
C635        C  0.11221919  0.31153670  0.71360124     0.88000
C636        C  0.13891963  0.36276094  0.62478808     0.88500
C637        C  0.13692410  0.27642574  0.62940524     0.88600
H638        H  0.21336708  0.31978906  0.73009659    -0.05600
O639        O  0.21995695  0.38830009  0.71293941    -0.74600
Mg640      Mg  0.12336544  0.26173612  0.69085880     1.58000
H641        H  0.19174161  0.40568663  0.72535049    -0.05600
C642        C  0.06352959  0.34900288  0.67685041     0.93600
O643        O  0.05098457  0.25436715  0.65592292    -0.81800
C644        C  0.05149211  0.22927481  0.66319587     0.93600
O645        O  0.20355249  0.45247928  0.65230589    -0.81800
Mg646      Mg  0.24330154  0.36746749  0.68481634     1.58200
O647        O  0.06218480  0.32266547  0.67066316    -0.80100
O648        O  0.24570851  0.29687313  0.65429409    -0.81800
C649        C  0.34818105  0.39874263  0.77804835    -0.15500
C650        C  0.37763603  0.41229900  0.76775711    -0.30700
H651        H  0.32956415  0.37683648  0.76843922     0.13500
H652        H  0.39704691  0.43172419  0.77928478     0.14100
C653        C  0.33324876  0.29157973  0.53958193    -0.15500
C654        C  0.30167672  0.27390291  0.54267136    -0.30700
H655        H  0.34367800  0.29609919  0.51887155     0.13500
H656        H  0.29220691  0.26774939  0.56362956     0.14100
C657        C  0.49155573  0.27415309  0.55272034    -0.15500
C658        C  0.46144507  0.26067231  0.56168739    -0.30700
H659        H  0.01241960  0.29857595  0.56478360     0.13500
H660        H  0.44263100  0.24117320  0.54973406     0.14100
C661        C  0.35273042  0.46232950  0.78541691    -0.15500
C662        C  0.37240787  0.49431760  0.78778716    -0.30700
H663        H  0.34361492  0.45215020  0.76480646     0.13500
H664        H  0.38431395  0.50470292  0.80754307     0.14100
C665        C  0.29559978  0.04513837  0.56607264    -0.15500
C666        C  0.30072935  0.05412036  0.53896990    -0.30700
H667        H  0.27242953  0.02594766  0.57234079     0.13500
H668        H  0.32469093  0.07077498  0.53224841     0.14100
C669        C  0.47755490  0.20660552  0.54605556    -0.15500
C670        C  0.45700626  0.17490710  0.54287473    -0.30700
H671        H  0.48586048  0.21597311  0.56704505     0.13500
H672        H  0.44594360  0.16498817  0.52274166     0.14100
C673        C  0.03405287  0.39441602  0.78805657    -0.15500
C674        C  0.00255705  0.38200010  0.79085047    -0.30700
H675        H  0.04393771  0.39811982  0.76716465     0.13500
H676        H  0.49353448  0.37433619  0.81045666     0.14100
C677        C  0.03126092  0.11164833  0.79619088    -0.15500
C678        C  0.03676865  0.12233463  0.76958958    -0.30700
H679        H  0.00751613  0.09335412  0.80205476     0.13500
H680        H  0.05951662  0.14292040  0.76430501     0.14100
C681        C  0.09974785  0.45122422  0.78283170    -0.15500
C682        C  0.08511179  0.46537613  0.77041722    -0.30700
H683        H  0.12345953  0.45788132  0.77616533     0.13500
H684        H  0.06307688  0.46178560  0.77904354     0.14100
C685        C  0.12639570  0.13006057  0.79313189    -0.15500
C686        C  0.09562235  0.11774187  0.79919110    -0.30700
H687        H  0.14424114  0.15196009  0.80324788     0.13500
H688        H  0.07804247  0.09803444  0.78649552     0.14100
C689        C  0.23809756  0.05197845  0.53833456    -0.15500
C690        C  0.20798563  0.04154850  0.54565900    -0.30700
H691        H  0.25695331  0.07163441  0.55014416     0.13500
H692        H  0.18886383  0.01972472  0.53653999     0.14100
C693        C  0.24291059  0.20851974  0.56813719    -0.15500
C694        C  0.24934789  0.20476343  0.54148272    -0.30700
H695        H  0.24201228  0.22994187  0.57374619     0.13500
H696        H  0.24666663  0.18182900  0.53508337     0.14100
C697        C  0.04870994  0.34358216  0.88244241    -0.15500
C698        C  0.06160021  0.37555784  0.88450606    -0.30700
H699        H  0.04474506  0.33252760  0.86183023     0.13500
H700        H  0.06810675  0.38717584  0.90491848     0.14100
C701        C  0.06709727  0.20152896  0.89432625    -0.15500
C702        C  0.05233949  0.17047733  0.88611255    -0.30700
H703        H  0.08783216  0.21949561  0.88330442     0.13500
H704        H  0.02983551  0.15344685  0.89542521     0.14100
C705        C  0.28348513  0.35577681  0.88808243    -0.15500
C706        C  0.31237157  0.36978891  0.87621185    -0.30700
H707        H  0.26618714  0.36203968  0.88082376     0.13500
H708        H  0.32857837  0.36140186  0.88175219     0.14100
C709        C  0.14563691  0.19621366  0.88844563    -0.15500
C710        C  0.11461747  0.17509783  0.89009532    -0.30700
H711        H  0.15642782  0.20589129  0.86828814     0.13500
H712        H  0.10347430  0.16756167  0.91046199     0.14100
C713        C  0.12405084  0.43489139  0.88004631    -0.15500
C714        C  0.13969117  0.42002505  0.88892232    -0.30700
H715        H  0.12999693  0.45812641  0.88879973     0.13500
H716        H  0.13545739  0.39799152  0.87874835     0.14100
C717        C  0.31698063  0.43344156  0.88429045    -0.15500
C718        C  0.29721586  0.44512339  0.88535568    -0.30700
H719        H  0.32544105  0.42820178  0.90356462     0.13500
H720        H  0.28634719  0.44728961  0.86617377     0.14100
C721        C  0.42685655  0.29496191  0.12332512    -0.15500
C722        C  0.42415543  0.29606625  0.09537785    -0.33700
H723        H  0.43629384  0.28040737  0.13159708     0.13500
H724        H  0.41824464  0.31302879  0.08634655     0.14100
C725        C  0.38117457  0.32177429  0.11610872    -0.15500
C726        C  0.35602535  0.29286439  0.11096982    -0.30700
H727        H  0.38719703  0.34168272  0.10195712     0.13500
H728        H  0.34998281  0.27361773  0.12592392     0.14100
C729        C  0.27219339  0.49536986  0.44607268    -0.15500
C730        C  0.28627213  0.47751335  0.44879730    -0.30700
H731        H  0.26846178  0.00154567  0.42686688     0.13500
H732        H  0.28875805  0.46948653  0.46941904     0.14100
C733        C  0.26922075  0.28954584  0.44788330    -0.15500
C734        C  0.26710579  0.31640233  0.44845625    -0.30700
H735        H  0.27743448  0.28324647  0.42914908     0.13500
H736        H  0.25779197  0.32190502  0.46691818     0.14100
C737        C  0.38155090  0.36114520  0.21939902    -0.15500
C738        C  0.41122510  0.37024060  0.21104632    -0.30700
H739        H  0.36170217  0.34059770  0.20938518     0.13500
H740        H  0.43110634  0.38850195  0.22301145     0.14100
C741        C  0.04583825  0.29879557  0.43398844    -0.15500
C742        C  0.04928054  0.30414037  0.46197946    -0.30700
H743        H  0.02887659  0.27514397  0.42612839     0.13500
H744        H  0.06371764  0.32874858  0.46936708     0.14100
C745        C  0.17575978  0.46938216  0.45471603    -0.15500
C746        C  0.20712791  0.48653056  0.44937232    -0.30700
H747        H  0.16716196  0.46490893  0.47609196     0.13500
H748        H  0.21509885  0.48817750  0.42794918     0.14100
C749        C  0.49703320  0.37102930  0.20740257    -0.15500
C750        C  0.46557877  0.35769269  0.21143458    -0.30700
H751        H  0.00308027  0.37205460  0.18725411     0.13500
H752        H  0.45674764  0.35618178  0.23254359     0.14100
C753        C  0.41884748  0.13642371  0.13134998    -0.15500
C754        C  0.44531573  0.14882807  0.11609055    -0.30700
H755        H  0.40075646  0.14240463  0.12617316     0.13500
H756        H  0.46178979  0.14016571  0.11913396     0.14100
C757        C  0.35522951  0.07626385  0.13609409    -0.15500
C758        C  0.35820664  0.07430602  0.10831119    -0.30700
H759        H  0.33168223  0.06633397  0.14477825     0.13500
H760        H  0.38115716  0.08032627  0.10001510     0.14100
C761        C  0.40784174  0.02764837  0.22576305    -0.15500
C762        C  0.39216538  0.04346501  0.21952097    -0.30700
H763        H  0.42866368  0.03238596  0.21400528     0.13500
H764        H  0.36991108  0.03643884  0.22987097     0.14100
C765        C  0.22020410  0.14108798  0.11174073    -0.15500
C766        C  0.18991070  0.12290107  0.11964636    -0.30700
H767        H  0.23882001  0.14052497  0.12379050     0.13500
H768        H  0.17164035  0.12525520  0.10871825     0.14100
C769        C  0.19597510  0.06425630  0.12601089    -0.15500
C770        C  0.18620549  0.03419265  0.11714919    -0.30700
H771        H  0.21666793  0.08367903  0.11614672     0.13500
H772        H  0.16383444  0.01449369  0.12434185     0.14100
C773        C  0.12465154  0.03392889  0.20921944    -0.15500
C774        C  0.12417693  0.03933269  0.23683808    -0.30700
H775        H  0.11282130  0.00919373  0.20183221     0.13500
H776        H  0.13886806  0.06329032  0.24525155     0.14100
C777        C  0.05873285  0.24199708  0.44781144    -0.15500
C778        C  0.02907408  0.23280641  0.45537882    -0.30700
H779        H  0.07866620  0.25867991  0.46068035     0.13500
H780        H  0.00930642  0.21369872  0.44387964     0.14100
C781        C  0.18365254  0.20635591  0.45145800    -0.15500
C782        C  0.21517036  0.22362434  0.44827681    -0.30700
H783        H  0.17370108  0.20056495  0.47235652     0.13500
H784        H  0.22473959  0.23167180  0.42747183     0.14100
C785        C  0.45397618  0.10506564  0.21827257    -0.15500
C786        C  0.48542466  0.12369017  0.21494952    -0.30700
H787        H  0.44497630  0.09594221  0.23902663     0.13500
H788        H  0.99417367  0.13528651  0.19798701     0.14100
C789        C  0.11159997  0.09497249  0.22065144    -0.15500
C790        C  0.14123783  0.10500440  0.21221658    -0.30700
H791        H  0.09152644  0.07681157  0.20882411     0.13500
H792        H  0.16083574  0.12517667  0.22291867     0.14100
O793        O  0.12660095  0.65373781  0.34872333    -0.87400
C794        C  0.12060601  0.73405750  0.36155872     0.88600
Mg795      Mg  0.12672483  0.63591767  0.30753358     1.58100
O796        O  0.05086861  0.66106274  0.37485466    -0.87200
O797        O  0.09926934  0.63662809  0.38724992    -0.74500
C798        C  0.00604674  0.63061738  0.23902454     0.93700
O799        O  0.15275885  0.71675699  0.31008029    -0.74300
O800        O  0.03400734  0.63646055  0.23442213    -0.81800
Mg801      Mg  0.15891760  0.70471497  0.35542052     1.58000
C802        C  0.46714866  0.65261921  0.33997784     0.93600
O803        O  0.17187963  0.69971751  0.40108494    -0.80100
H804        H  0.02756977  0.62012762  0.39635653    -0.05400
C805        C  0.05380146  0.69871831  0.29690344     0.88500
O806        O  0.07390044  0.59852288  0.30975051    -0.74600
O807        O  0.12009530  0.70921997  0.36895467    -0.87300
O808        O  0.48991751  0.67150945  0.35588435    -0.80200
C809        C  0.06089106  0.72245171  0.42147700     0.93700
C810        C  0.16187889  0.69894353  0.42586896     0.93500
Mg811      Mg  0.00948378  0.62767083  0.30974345     1.58000
O812        O  0.99622784  0.63091833  0.26369530    -0.80100
O813        O  0.01513946  0.61619972  0.35532597    -0.74300
O814        O  0.08283881  0.71559922  0.42252851    -0.80200
O815        O  0.20010953  0.70023176  0.34100738    -0.81900
O816        O  0.08670271  0.61651323  0.24194462    -0.80200
C817        C  0.03092476  0.63224016  0.37652688     0.88000
O818        O  0.04853689  0.62283079  0.29633180    -0.87300
O819        O  0.04212423  0.67878051  0.31588093    -0.87400
O820        O  0.06841109  0.69487017  0.27678513    -0.74500
Mg821      Mg  0.09147228  0.67748476  0.40191173     1.58000
O822        O  0.04254617  0.71569193  0.40042094    -0.81900
H823        H  0.11552121  0.61147483  0.36584816    -0.05600
O824        O  0.11772841  0.67185829  0.28995140    -0.87100
H825        H  0.14001061  0.71340980  0.26916401    -0.05400
H826        H  0.02619205  0.57611498  0.30590002    -0.05600
C827        C  0.13706653  0.70092746  0.28873231     0.88000
C828        C  0.11433233  0.63327598  0.36724833     0.88500
C829        C  0.04848120  0.59821933  0.30372148     0.88600
H830        H  0.05236686  0.72040438  0.29790005    -0.05600
O831        O  0.09553699  0.73412883  0.35489532    -0.74600
Mg832      Mg  0.07692039  0.65417472  0.26280814     1.58000
H833        H  0.14309060  0.75601003  0.35967870    -0.05600
C834        C  0.20333683  0.68464804  0.32108454     0.93600
O835        O  0.12796042  0.61874893  0.26411948    -0.81800
C836        C  0.10988633  0.61147956  0.24285311     0.93600
O837        O  0.13407026  0.69354805  0.43055213    -0.81800
Mg838      Mg  0.04267417  0.69745542  0.35702376     1.58200
O839        O  0.18048018  0.66533384  0.30551567    -0.80100
O840        O  0.47049568  0.63708422  0.31998420    -0.81800
C841        C  0.15806845  0.59545533  0.18890462     0.03200
C842        C  0.14832562  0.56230205  0.18641475     0.03200
C843        C  0.16258901  0.55295897  0.16578791    -0.17300
C844        C  0.18604174  0.57543868  0.14772244     0.03200
C845        C  0.19470328  0.60821690  0.14970768     0.03200
C846        C  0.18121909  0.61775227  0.17075952    -0.17300
H847        H  0.18835621  0.64297531  0.17267331     0.05200
H848        H  0.15643082  0.52798202  0.16486546     0.05200
C849        C  0.41159841  0.56119090  0.18720998     0.03200
C850        C  0.43709272  0.59333758  0.18943457     0.03200
C851        C  0.43791173  0.61642969  0.17080126    -0.17300
C852        C  0.41365604  0.60885793  0.15103313     0.03200
C853        C  0.38647958  0.57780248  0.15129622     0.03200
C854        C  0.38635796  0.55426657  0.16884768    -0.17300
H855        H  0.36620434  0.53004118  0.16821494     0.05200
H856        H  0.45718219  0.64101874  0.17203081     0.05200
O857        O  0.05493644  0.86513728  0.30847081    -0.87400
C858        C  0.04334912  0.94362303  0.30647652     0.88600
Mg859      Mg  0.05364973  0.83988767  0.34665545     1.58100
O860        O  0.12062896  0.95728492  0.29612213    -0.87200
O861        O  0.08279127  0.88593673  0.27087927    -0.74500
C862        C  0.15410888  0.95288083  0.43285874     0.93700
O863        O  0.01504312  0.88294319  0.35061394    -0.74300
O864        O  0.12847656  0.92606577  0.43576681    -0.81800
Mg865      Mg  0.01636370  0.87533588  0.30319418     1.58000
C866        C  0.19192610  0.53323025  0.33930071     0.93600
O867        O  0.00879619  0.86734116  0.25545434    -0.80100
H868        H  0.15013307  0.94852127  0.27417244    -0.05400
C869        C  0.10246033  0.97024113  0.37869996     0.88500
O870        O  0.10728151  0.86335463  0.35001018    -0.74600
O871        O  0.05040555  0.92442899  0.29663926    -0.87300
O872        O  0.16906509  0.52860406  0.32367542    -0.80200
C873        C  0.11116899  0.01314179  0.25758532     0.93700
C874        C  0.01861407  0.88380103  0.23300762     0.93500
Mg875      Mg  0.15532541  0.95801016  0.36316547     1.58000
O876        O  0.16206826  0.96764786  0.40961723    -0.80100
O877        O  0.15676877  0.94981845  0.31618412    -0.74300
O878        O  0.09299153  0.98402244  0.24988929    -0.80200
O879        O  0.47862253  0.82576670  0.30864341    -0.81900
O880        O  0.07947067  0.85039376  0.41902914    -0.80200
C881        C  0.14298726  0.95227635  0.29454826     0.88000
O882        O  0.12159080  0.90886814  0.37074092    -0.87300
O883        O  0.11649754  0.96760411  0.35846476    -0.87400
O884        O  0.08982599  0.94815577  0.39676653    -0.74500
Mg885      Mg  0.08486569  0.93438310  0.26428233     1.58000
O886        O  0.12125892  0.52119736  0.27893594    -0.81900
H887        H  0.07230781  0.84234541  0.28624325    -0.05600
O888        O  0.05163419  0.87685470  0.37153447    -0.87100
H889        H  0.02148193  0.88533090  0.39273990    -0.05400
H890        H  0.15248782  0.89457266  0.36173132    -0.05600
C891        C  0.02900782  0.88147420  0.37258524     0.88000
C892        C  0.06983674  0.86333128  0.28850912     0.88500
C893        C  0.12820354  0.88914337  0.36133547     0.88600
H894        H  0.10040270  0.99148625  0.38078592    -0.05600
O895        O  0.06390715  0.96922800  0.31824814    -0.74600
Mg896      Mg  0.08780542  0.89998316  0.40361074     1.58000
H897        H  0.01894006  0.93777711  0.30616416    -0.05600
C898        C  0.47778697  0.80473487  0.32518458     0.93600
O899        O  0.04903689  0.81375737  0.38709781    -0.81800
C900        C  0.05984557  0.82139689  0.41191704     0.93600
O901        O  0.04522488  0.90974894  0.23175290    -0.81800
Mg902      Mg  0.11745432  0.99349729  0.32152516     1.58200
O903        O  0.50095445  0.80949523  0.34039997    -0.80100
O904        O  0.19079873  0.51165836  0.35528273    -0.81800
O905        O  0.31405627  0.86361265  0.34460347    -0.87400
C906        C  0.35649331  0.93736557  0.40086260     0.88600
Mg907      Mg  0.33668753  0.85904092  0.30740789     1.58100
O908        O  0.29636320  0.93406360  0.35784960    -0.87200
O909        O  0.27025693  0.85960616  0.35990487    -0.74500
C910        C  0.39479674  0.00167145  0.24713671     0.93700
O911        O  0.38715651  0.90367530  0.35968142    -0.74300
O912        O  0.40250889  0.97992006  0.24771042    -0.81800
Mg913      Mg  0.34014403  0.87204459  0.38282710     1.58000
C914        C  0.31612196  0.51872939  0.31727208     0.93600
O915        O  0.29696560  0.83877624  0.40898783    -0.80100
H916        H  0.25224043  0.91085603  0.34264589    -0.05400
C917        C  0.38764128  0.99128762  0.32971027     0.88500
O918        O  0.31058926  0.87679164  0.27959573    -0.74600
O919        O  0.33435656  0.91264615  0.39067814    -0.87300
O920        O  0.30753642  0.50260641  0.33977310    -0.80200
C921        C  0.29803052  0.96774542  0.42520844     0.93700
C922        C  0.27951205  0.84141330  0.42718543     0.93500
Mg923      Mg  0.33258370  0.96780407  0.29022999     1.58000
O924        O  0.37255952  0.50135402  0.26557943    -0.80100
O925        O  0.28572574  0.93512179  0.31325678    -0.74300
O926        O  0.29452210  0.93960346  0.42561554    -0.80200
O927        O  0.34317279  0.82753722  0.37526855    -0.81900
O928        O  0.38355805  0.90293180  0.24847061    -0.80200
C929        C  0.27708759  0.92623209  0.33834614     0.88000
O930        O  0.34018376  0.92884295  0.28224860    -0.87300
O931        O  0.35850826  0.97778260  0.32890578    -0.87400
O932        O  0.40268080  0.98139673  0.31504321    -0.74500
Mg933      Mg  0.28575288  0.90102657  0.39181708     1.58000
O934        O  0.30897466  0.98594439  0.40392236    -0.81900
H935        H  0.27160597  0.82898111  0.33135137    -0.05600
O936        O  0.37669768  0.90638836  0.31524822    -0.87100
H937        H  0.42084167  0.92757214  0.33037068    -0.05400
H938        H  0.30254178  0.90759807  0.25683741    -0.05600
C939        C  0.39589733  0.91295210  0.33467019     0.88000
C940        C  0.28490667  0.84975954  0.34466359     0.88500
C941        C  0.31756116  0.90474574  0.27185992     0.88600
H942        H  0.40060871  0.01173318  0.34345250    -0.05600
O943        O  0.36128299  0.96495426  0.39397220    -0.74600
Mg944      Mg  0.38939934  0.94116854  0.28225166     1.58000
H945        H  0.37241847  0.93550223  0.41552707    -0.05600
C946        C  0.35226877  0.81911840  0.35380089     0.93600
O947        O  0.35887908  0.85388537  0.26743999    -0.81800
C948        C  0.37408995  0.87281559  0.24745777     0.93600
O949        O  0.27480956  0.86513763  0.42731269    -0.81800
Mg950      Mg  0.33433077  0.98185389  0.36541636     1.58200
O951        O  0.36021146  0.83544173  0.33136283    -0.80100
O952        O  0.32594826  0.51018750  0.29653702    -0.81800
C953        C  0.43999093  0.84598295  0.18831256     0.03200
C954        C  0.41429102  0.85178043  0.18804356     0.03200
C955        C  0.39390232  0.84162294  0.16464712    -0.17300
C956        C  0.39731097  0.82429168  0.14255689     0.03200
C957        C  0.42096737  0.81545169  0.14424894     0.03200
C958        C  0.44223117  0.82701194  0.16700423    -0.17300
H959        H  0.46085568  0.82106812  0.16822289     0.05200
H960        H  0.37535267  0.84766528  0.16339984     0.05200
O961        O  0.18872759  0.97061633  0.99362180    -0.87400
C962        C  0.26049274  0.51167352  0.93843573     0.88600
Mg963      Mg  0.18631867  0.99275763  0.03165617     1.58100
O964        O  0.25971688  0.95352591  0.98146754    -0.87200
O965        O  0.18565930  0.92579518  0.98013739    -0.74500
C966        C  0.32975084  0.55322247  0.08844641     0.93700
O967        O  0.22954292  0.54464050  0.97997964    -0.74300
O968        O  0.30624688  0.55777171  0.09029132    -0.81800
Mg969      Mg  0.19743988  0.49789656  0.95548880     1.58000
C970        C  0.34785768  0.97635966  0.01729115     0.93600
O971        O  0.16539767  0.95669035  0.92730486    -0.80100
H972        H  0.23941389  0.90856072  0.99609599    -0.05400
C973        C  0.31570738  0.54221684  0.00812117     0.88500
O974        O  0.20629816  0.96617647  0.05684652    -0.74600
O975        O  0.23580424  0.48950884  0.94820175    -0.87300
O976        O  0.32928774  0.96574887  0.99623710    -0.80200
C977        C  0.28961364  0.95574020  0.91245614     0.93700
C978        C  0.16597328  0.93570185  0.91143990     0.93500
Mg979      Mg  0.29799511  0.99156736  0.04755897     1.58000
O980        O  0.32962298  0.53254861  0.07179225    -0.80100
O981        O  0.26542983  0.94283986  0.02515149    -0.74300
O982        O  0.26177880  0.95149123  0.91361827    -0.80200
O983        O  0.15507199  0.50337066  0.96376899    -0.81900
O984        O  0.23066521  0.53746950  0.09032791    -0.80200
C985        C  0.25424300  0.93391173  0.00048030     0.88000
O986        O  0.25786804  0.99685303  0.05678827    -0.87300
O987        O  0.30258517  0.51260555  0.00894941    -0.87400
O988        O  0.30626309  0.55757986  0.02305822    -0.74500
Mg989      Mg  0.22532096  0.94176596  0.94811487     1.58000
O990        O  0.30849175  0.96591076  0.93329224    -0.81900
H991        H  0.15497440  0.92779006  0.00732226    -0.05600
O992        O  0.23288792  0.53161192  0.02330968    -0.87100
H993        H  0.25395567  0.57729236  0.01056195    -0.05400
H994        H  0.23596210  0.95578738  0.07829463    -0.05600
C995        C  0.23923929  0.55220709  0.00510290     0.88000
C996        C  0.17533893  0.94098832  0.99407590     0.88500
C997        C  0.23367598  0.97262206  0.06487897     0.88600
H998        H  0.33542140  0.55531294  0.99417340    -0.05600
O999        O  0.28736436  0.51555257  0.94514766    -0.74600
Mg1000     Mg  0.26740545  0.54375877  0.05624035     1.58000
H1001       H  0.25923730  0.52856770  0.92430618    -0.05600
C1002       C  0.14728938  0.51273192  0.98557580     0.93600
O1003       O  0.18267936  0.51420858  0.07058569    -0.81800
C1004       C  0.20129350  0.52875824  0.09085032     0.93600
O1005       O  0.18749864  0.92826885  0.91370425    -0.81800
Mg1006     Mg  0.30441862  0.48745023  0.97219842     1.58200
O1007       O  0.16294048  0.51891608  0.00839366    -0.80100
O1008       O  0.34169781  0.98840779  0.03824908    -0.81800
O1009       O  0.28802534  0.80427735  0.99171965    -0.87400
C1010       C  0.25179501  0.73242004  0.93351886     0.88600
Mg1011     Mg  0.31382970  0.80309262  0.02838888     1.58100
O1012       O  0.19762100  0.73687885  0.97883992    -0.87200
O1013       O  0.24852035  0.81102330  0.98010672    -0.74500
C1014       C  0.22355416  0.65692784  0.08218802     0.93700
O1015       O  0.31622049  0.76002111  0.97374638    -0.74300
O1016       O  0.25232619  0.67940334  0.08302460    -0.81800
Mg1017     Mg  0.30332606  0.79514111  0.95238194     1.58000
C1018       C  0.12968957  0.64819174  0.01320442     0.93600
O1019       O  0.29606551  0.83085797  0.92585554    -0.80100
H1020       H  0.17692079  0.75984099  0.99539300    -0.05400
C1021       C  0.22595669  0.67287952  0.00100170     0.88500
O1022       O  0.26958002  0.78559641  0.05557508    -0.74600
O1023       O  0.25598202  0.75754988  0.94449511    -0.87300
O1024       O  0.13760262  0.66717577  0.99242490    -0.80200
C1025       C  0.16596381  0.70939597  0.91021137     0.93700
C1026       C  0.27511743  0.83243553  0.91111883     0.93500
Mg1027     Mg  0.19614365  0.69535973  0.04282322     1.58000
O1028       O  0.20372413  0.65767403  0.06537700    -0.80100
O1029       O  0.18348149  0.73146195  0.02293861    -0.74300
O1030       O  0.19047307  0.73728790  0.91118435    -0.80200
O1031       O  0.35113453  0.83701151  0.96140978    -0.81900
O1032       O  0.30882864  0.75264962  0.08449798    -0.80200
C1033       C  0.18556275  0.74335529  0.99867042     0.88000
O1034       O  0.24312404  0.73317812  0.05140197    -0.87300
O1035       O  0.21155017  0.68770282  0.00345733    -0.87400
O1036       O  0.25079761  0.68061235  0.01519312    -0.74500
Mg1037     Mg  0.22087506  0.77244933  0.94658356     1.58000
O1038       O  0.15780384  0.68982651  0.93051040    -0.81900
H1039       H  0.28258396  0.83945032  0.00812103    -0.05600
O1040       O  0.30186024  0.75480942  0.01770582    -0.87100
H1041       H  0.32343660  0.73248327  0.00171489    -0.05400
H1042       H  0.22914401  0.75678137  0.07664536    -0.05600
C1043       C  0.31433282  0.74853569  0.99812810     0.88000
C1044       C  0.27376425  0.81928844  0.99382742     0.88500
C1045       C  0.24661401  0.75819225  0.06206729     0.88600
H1046       H  0.21750545  0.65322594  0.98618695    -0.05600
O1047       O  0.22837145  0.70525799  0.93989588    -0.74600
Mg1048     Mg  0.27812932  0.71851132  0.04942451     1.58000
H1049       H  0.26886609  0.73350052  0.91863696    -0.05600
C1050       C  0.36898455  0.84403202  0.98267298     0.93600
O1051       O  0.34005766  0.80199579  0.06780476    -0.81800
C1052       C  0.33233849  0.78097642  0.08703207     0.93600
O1053       O  0.24589587  0.81171408  0.91344067    -0.81800
Mg1054     Mg  0.18481261  0.68869744  0.96801774     1.58200
O1055       O  0.36126337  0.82586622  0.00411166    -0.80100
O1056       O  0.14807563  0.65391005  0.03384404    -0.81800
O1057       O  0.49033729  0.78943298  0.97606165    -0.87400
C1058       C  0.06614147  0.77852199  0.97451053     0.88600
Mg1059     Mg  0.46890240  0.79280792  0.01393836     1.58100
O1060       O  0.48997157  0.71034780  0.95731197    -0.87200
O1061       O  0.47635715  0.76420804  0.93613044    -0.74500
C1062       C  0.44941172  0.67129423  0.09274572     0.93700
O1063       O  0.04527795  0.81241915  0.02360215    -0.74300
O1064       O  0.45036586  0.69804639  0.09626212    -0.81800
Mg1065     Mg  0.03851087  0.81996070  0.97678053     1.58000
C1066       C  0.47130700  0.62434654  0.99329265     0.93600
O1067       O  0.03778537  0.83306376  0.93026924    -0.80100
H1068       H  0.45096932  0.68905331  0.93341201    -0.05400
C1069       C  0.02138730  0.71118896  0.03670528     0.88500
O1070       O  0.42848191  0.74071017  0.00954261    -0.74600
O1071       O  0.04334821  0.77980050  0.96480327    -0.87300
O1072       O  0.99032653  0.64672389  0.97007878    -0.80200
C1073       C  0.05396920  0.71436341  0.91440629     0.93700
C1074       C  0.03947025  0.82282766  0.90602714     0.93500
Mg1075     Mg  0.45014680  0.67109169  0.02190367     1.58000
O1076       O  0.45301829  0.66178081  0.06885613    -0.80100
O1077       O  0.44331638  0.67634452  0.97446075    -0.74300
O1078       O  0.05072608  0.73895484  0.91199794    -0.80200
O1079       O  0.03183710  0.86175043  0.98811430    -0.81900
O1080       O  0.44117651  0.75990574  0.08228834    -0.80200
C1081       C  0.46122838  0.69185463  0.95408052     0.88000
O1082       O  0.44501306  0.71188836  0.03160409    -0.87300
O1083       O  0.00396169  0.70159650  0.01589472    -0.87400
O1084       O  0.01577721  0.72461496  0.05698907    -0.74500
Mg1085     Mg  0.01411448  0.75187157  0.92964117     1.58000
O1086       O  0.04439899  0.69635524  0.93573406    -0.81900
H1087       H  0.45371477  0.78532100  0.95386429    -0.05600
O1088       O  0.99891670  0.77734795  0.04034648    -0.87100
H1089       H  0.03788916  0.79818496  0.06426255    -0.05400
H1090       H  0.40151577  0.69256107  0.01528185    -0.05600
C1091       C  0.02754648  0.79606527  0.04373162     0.88000
C1092       C  0.47285763  0.78028555  0.95531804     0.88500
C1093       C  0.42395672  0.71410078  0.01913726     0.88600
H1094       H  0.04196781  0.70842164  0.03753826    -0.05600
O1095       O  0.06385283  0.75198415  0.98148629    -0.74600
Mg1096     Mg  0.47435632  0.74086936  0.06653812     1.58000
H1097       H  0.08822937  0.80058532  0.97796379    -0.05600
C1098       C  0.01692939  0.86486896  0.00842173     0.93600
O1099       O  0.44599255  0.79764102  0.05248588    -0.81800
C1100       C  0.43691491  0.78326977  0.07570280     0.93600
O1101       O  0.03489870  0.79475513  0.90189669    -0.81800
Mg1102     Mg  0.02433051  0.69948105  0.97674322     1.58200
O1103       O  0.50497929  0.84522897  0.02037384    -0.80100
O1104       O  0.45700816  0.62836258  0.01361348    -0.81800
O1105       O  0.13925735  0.52657770  0.66858627    -0.87400
C1106       C  0.18770315  0.58713375  0.73217134     0.88600
Mg1107     Mg  0.16107315  0.52953925  0.62886591     1.58100
O1108       O  0.13057571  0.59821321  0.69441598    -0.87200
O1109       O  0.09601228  0.52268596  0.68459252    -0.74500
C1110       C  0.22827363  0.68048192  0.58719106     0.93700
O1111       O  0.21191948  0.55911953  0.68250927    -0.74300
O1112       O  0.23177266  0.65615046  0.58346785    -0.81800
Mg1113     Mg  0.16455243  0.52456327  0.70453613     1.58000
C1114       C  0.15737612  0.69118587  0.67547976     0.93600
O1115       O  0.12408744  0.99107463  0.73265382    -0.80100
H1116       H  0.08666903  0.58352430  0.68085544    -0.05400
C1117       C  0.22284356  0.65743477  0.66777933     0.88500
O1118       O  0.13713259  0.55517659  0.60901962    -0.74600
O1119       O  0.16193444  0.56513558  0.72206784    -0.87300
O1120       O  0.15090833  0.67119398  0.69501277    -0.80200
C1121       C  0.13315490  0.61901348  0.76579663     0.93700
C1122       C  0.10128329  0.49089991  0.74918177     0.93500
Mg1123     Mg  0.16838176  0.64601288  0.63250376     1.58000
O1124       O  0.21239128  0.68220398  0.60755231    -0.80100
O1125       O  0.12080485  0.61200749  0.65340195    -0.74300
O1126       O  0.11981244  0.58918584  0.76001465    -0.80200
O1127       O  0.16917480  0.98417341  0.68718783    -0.81900
O1128       O  0.21043060  0.58143401  0.57458097    -0.80200
C1129       C  0.11169657  0.59750419  0.67668939     0.88000
O1130       O  0.17071579  0.60643324  0.61498499    -0.87300
O1131       O  0.19382985  0.64428196  0.66817709    -0.87400
O1132       O  0.23659123  0.64958837  0.64970731    -0.74500
Mg1133     Mg  0.11266397  0.55771267  0.72164133     1.58000
O1134       O  0.15255005  0.64056346  0.74958876    -0.81900
H1135       H  0.09690554  0.49574229  0.65229126    -0.05600
O1136       O  0.20261179  0.57370269  0.64158843    -0.87100
H1137       H  0.24641633  0.58898321  0.65581516    -0.05400
H1138       H  0.13080989  0.59055006  0.59284576    -0.05600
C1139       C  0.22133973  0.57454599  0.65957321     0.88000
C1140       C  0.11027528  0.51395542  0.66789115     0.88500
C1141       C  0.14601234  0.58452839  0.60469421     0.88600
H1142       H  0.23670972  0.67566255  0.68321248    -0.05600
O1143       O  0.19723576  0.61648473  0.72747622    -0.74600
Mg1144     Mg  0.21819540  0.61376461  0.61303512     1.58000
H1145       H  0.20273431  0.58065323  0.74382931    -0.05600
C1146       C  0.17843894  0.98053682  0.66334731     0.93600
O1147       O  0.18166461  0.53028735  0.58750730    -0.81800
C1148       C  0.19906342  0.55150551  0.57008089     0.93600
O1149       O  0.09595184  0.51426277  0.74957875    -0.81800
Mg1150     Mg  0.17283796  0.64167880  0.70804839     1.58200
O1151       O  0.18419816  0.99990169  0.64331587    -0.80100
O1152       O  0.16716159  0.68821625  0.65169449    -0.81800
C1153       C  0.06447486  0.66190063  0.86012498     0.03200
C1154       C  0.09466328  0.66510599  0.86140563     0.03200
C1155       C  0.10370238  0.65093003  0.84059421    -0.17300
C1156       C  0.08348116  0.63388072  0.81805416     0.03200
C1157       C  0.05311279  0.63073632  0.81671828     0.03200
C1158       C  0.04388169  0.64434130  0.83809286    -0.17300
H1159       H  0.02042549  0.64144956  0.83746078     0.05200
H1160       H  0.12602502  0.65160729  0.84317338     0.05200
C1161       C  0.07278886  0.89590181  0.85787909     0.03200
C1162       C  0.10330043  0.92296349  0.85550441     0.03200
C1163       C  0.11189876  0.94026872  0.83035828    -0.17300
C1164       C  0.09067893  0.93146368  0.80764387     0.03200
C1165       C  0.05958114  0.90501367  0.81035963     0.03200
C1166       C  0.05119837  0.88753596  0.83546377    -0.17300
H1167       H  0.02776539  0.86681230  0.83749030     0.05200
H1168       H  0.13537550  0.96106497  0.82851872     0.05200
O1169       O  0.47191584  0.61882780  0.66632641    -0.87400
C1170       C  0.41189777  0.60319192  0.73071451     0.88600
Mg1171     Mg  0.47025036  0.64124866  0.62732326     1.58100
O1172       O  0.40265091  0.53722161  0.69133537    -0.87200
O1173       O  0.47608998  0.57930033  0.68375084    -0.74500
C1174       C  0.32193704  0.55891834  0.58415073     0.93700
O1175       O  0.43926146  0.65896886  0.68235399    -0.74300
O1176       O  0.34625775  0.58659002  0.58102881    -0.81800
Mg1177     Mg  0.47282201  0.64404165  0.70343007     1.58000
C1178       C  0.31164681  0.97047172  0.67242561     0.93600
O1179       O  0.00984986  0.63044815  0.72738297    -0.80100
H1180       H  0.41887183  0.50963282  0.67584740    -0.05400
C1181       C  0.34527809  0.57317031  0.66594941     0.88500
O1182       O  0.44548740  0.59229329  0.60515841    -0.74600
O1183       O  0.43345974  0.60127238  0.71921321    -0.87300
O1184       O  0.33293023  0.98206029  0.69104460    -0.80200
C1185       C  0.38098072  0.51488839  0.76265097     0.93700
C1186       C  0.50656180  0.61520153  0.74811545     0.93500
Mg1187     Mg  0.35620749  0.53088504  0.62847545     1.58000
O1188       O  0.32011873  0.54009975  0.60384677    -0.80100
O1189       O  0.39022256  0.51626889  0.64907356    -0.74300
O1190       O  0.40942330  0.53743494  0.75953212    -0.80200
O1191       O  0.01670050  0.68375843  0.68481712    -0.81900
O1192       O  0.41921475  0.63714292  0.57207863    -0.80200
C1193       C  0.40447985  0.52055720  0.67247983     0.88000
O1194       O  0.39523639  0.57351783  0.61253828    -0.87300
O1195       O  0.35744795  0.55608546  0.66564800    -0.87400
O1196       O  0.35306707  0.59552522  0.64821085    -0.74500
Mg1197     Mg  0.44107499  0.56084450  0.72055699     1.58000
O1198       O  0.35995613  0.50852585  0.74413057    -0.81900
H1199       H  0.50174545  0.60592084  0.65060507    -0.05600
O1200       O  0.42683292  0.63809504  0.64007527    -0.87100
H1201       H  0.41102606  0.66607881  0.65545158    -0.05400
H1202       H  0.41086444  0.55037364  0.58857295    -0.05600
C1203       C  0.42517367  0.65489150  0.65888995     0.88000
C1204       C  0.48410567  0.60177524  0.66612674     0.88500
C1205       C  0.41669656  0.57128273  0.60124742     0.88600
H1206       H  0.32781126  0.56912426  0.68162249    -0.05600
O1207       O  0.38313882  0.58182389  0.72707719    -0.74600
Mg1208     Mg  0.38776499  0.61390987  0.61106585     1.58000
H1209       H  0.41759356  0.62400707  0.74346920    -0.05600
C1210       C  0.02084492  0.69918107  0.66223258     0.93600
O1211       O  0.46893283  0.66462363  0.58734152    -0.81800
C1212       C  0.44798622  0.65882521  0.56888075     0.93600
O1213       O  0.48222369  0.58745308  0.75054415    -0.81800
Mg1214     Mg  0.35916145  0.53310949  0.70434505     1.58200
O1215       O  0.00080135  0.68871176  0.64244605    -0.80100
O1216       O  0.31366819  0.98494840  0.64965251    -0.81800
O1217       O  0.45770922  0.82453814  0.68629118    -0.87400
C1218       C  0.45313486  0.90696991  0.69284570     0.88600
Mg1219     Mg  0.46378047  0.80560830  0.64732934     1.58100
O1220       O  0.38183940  0.83464021  0.70329032    -0.87200
O1221       O  0.42805092  0.81027079  0.72360482    -0.74500
C1222       C  0.35309263  0.80150765  0.56496453     0.93700
O1223       O  0.49100985  0.88734809  0.64652297    -0.74300
O1224       O  0.38097736  0.80609377  0.56270255    -0.81800
Mg1225     Mg  0.49030994  0.87571290  0.69320589     1.58000
C1226       C  0.30175082  0.82197553  0.66031470     0.93600
O1227       O  0.49705738  0.87053983  0.73921503    -0.80100
H1228       H  0.35660535  0.79352964  0.72416162    -0.05400
C1229       C  0.39569356  0.87065944  0.62295080     0.88500
O1230       O  0.41111204  0.76813354  0.64376821    -0.74600
O1231       O  0.45080093  0.88151906  0.70086730    -0.87300
O1232       O  0.32349075  0.84187048  0.67654207    -0.80200
C1233       C  0.38673722  0.89775958  0.74559588     0.93700
C1234       C  0.48692118  0.87276754  0.76301930     0.93500
Mg1235     Mg  0.34931051  0.80004152  0.63527733     1.58000
O1236       O  0.34184611  0.80342676  0.58841273    -0.80100
O1237       O  0.34961710  0.78929892  0.68209822    -0.74300
O1238       O  0.40887273  0.89139921  0.74931158    -0.80200
O1239       O  0.03038098  0.86691850  0.68922039    -0.81900
O1240       O  0.43333107  0.78610400  0.57876662    -0.80200
C1241       C  0.36227635  0.80560698  0.70415147     0.88000
O1242       O  0.38931318  0.79457282  0.62729384    -0.87300
O1243       O  0.38162993  0.85132252  0.64194249    -0.87400
O1244       O  0.41177853  0.86569857  0.60492528    -0.74500
Mg1245     Mg  0.41953093  0.85216127  0.73365519     1.58000
O1246       O  0.37004367  0.88985696  0.72325801    -0.81900
H1247       H  0.44436439  0.78301330  0.70597101    -0.05600
O1248       O  0.45868268  0.84206472  0.62540079    -0.87100
H1249       H  0.48433670  0.88302133  0.60441779    -0.05400
H1250       H  0.36438096  0.74731172  0.63449714    -0.05600
C1251       C  0.47843518  0.87102827  0.62446899     0.88000
C1252       C  0.44375009  0.80515245  0.70528098     0.88500
C1253       C  0.38717710  0.76907294  0.63485578     0.88600
H1254       H  0.39489232  0.89269239  0.62204173    -0.05600
O1255       O  0.42931288  0.90800873  0.68375477    -0.74600
Mg1256     Mg  0.42114707  0.82440281  0.59489446     1.58000
H1257       H  0.47605918  0.92857422  0.69282963    -0.05600
C1258       C  0.03509126  0.84957335  0.67228912     0.93600
O1259       O  0.47189861  0.78799423  0.60542186    -0.81800
C1260       C  0.45600087  0.78052548  0.58267587     0.93600
O1261       O  0.45979709  0.86993451  0.76599520    -0.81800
Mg1262     Mg  0.37654289  0.87085826  0.68116727     1.58200
O1263       O  0.01418496  0.83028365  0.65518829    -0.80100
O1264       O  0.30615691  0.80494683  0.64261473    -0.81800
C1265       C  0.32446720  0.89591826  0.85526240     0.03200
C1266       C  0.32729673  0.92644416  0.85864010     0.03200
C1267       C  0.33885134  0.94856994  0.83642767    -0.17300
C1268       C  0.34711467  0.94070714  0.81069970     0.03200
C1269       C  0.34360901  0.90988523  0.80706807     0.03200
C1270       C  0.33265143  0.88805043  0.82948820    -0.17300
H1271       H  0.33033788  0.86457239  0.82679808     0.05200
H1272       H  0.34093828  0.97194412  0.83906937     0.05200
C1273       C  0.02990101  0.77497456  0.48223772     0.03200
C1274       C  0.01843906  0.74160905  0.47832902     0.03200
C1275       C  0.99912008  0.71948866  0.49857940    -0.17300
C1276       C  0.49268240  0.73298377  0.52209664     0.03200
C1277       C  0.50325246  0.76603338  0.52572183     0.03200
C1278       C  0.02166386  0.78484350  0.50709727    -0.17300
H1279       H  0.02990102  0.81015989  0.51037029     0.05200
H1280       H  0.99168049  0.69430027  0.49568541     0.05200
C1281       C  0.26143348  0.76865226  0.47277428     0.03200
C1282       C  0.23685131  0.73629565  0.47190940     0.03200
C1283       C  0.23320100  0.71611088  0.49459927    -0.17300
C1284       C  0.25344236  0.72754072  0.51807963     0.03200
C1285       C  0.27827070  0.76004020  0.51877392     0.03200
C1286       C  0.28171970  0.78020603  0.49613358    -0.17300
H1287       H  0.30064810  0.80505625  0.49646622     0.05200
H1288       H  0.21461425  0.69111839  0.49387699     0.05200
C1289       C  0.23227919  0.00341591  0.47333145     0.03200
C1290       C  0.26295211  0.00730809  0.47227450     0.03200
C1291       C  0.28365566  0.52420069  0.49211627    -0.17300
C1292       C  0.27598304  0.53821100  0.51440788     0.03200
C1293       C  0.24598262  0.53596733  0.51464519     0.03200
C1294       C  0.22437427  0.51897223  0.49300038    -0.17300
H1295       H  0.20211092  0.51860344  0.49203730     0.05200
H1296       H  0.30699860  0.52688448  0.49145456     0.05200
O1297       O  0.45043834  0.50280642  0.98184768    -0.87400
C1298       C  0.01816826  0.55171293  0.04250656     0.88600
Mg1299     Mg  0.42185130  0.95332936  0.98054121     1.58100
O1300       O  0.05051074  0.54142577  0.98002755    -0.87200
O1301       O  0.98812191  0.53690817  0.95375872    -0.74500
C1302       C  0.01230982  0.89245726  0.00903590     0.93700
O1303       O  0.44621692  0.48243148  0.04736912    -0.74300
O1304       O  0.48977314  0.89057423  0.01042059    -0.81800
Mg1305     Mg  0.45307174  0.52550740  0.02186758     1.58000
C1306       C  0.11641701  0.51060059  0.98626876     0.93600
O1307       O  0.45650568  0.57070296  0.00313492    -0.80100
H1308       H  0.05839488  0.54924388  0.93901157    -0.05400
C1309       C  0.03335273  0.97628194  0.04268991     0.88500
O1310       O  0.45441558  0.94692730  0.95034763    -0.74600
O1311       O  0.00562696  0.54793929  0.01927514    -0.87300
O1312       O  0.11366502  0.53354977  0.99655236    -0.80200
C1313       C  0.10164518  0.61626183  0.01117016     0.93700
C1314       C  0.98072835  0.59764610  0.98817649     0.93500
Mg1315     Mg  0.03902337  0.96440802  0.98030304     1.58000
O1316       O  0.03427557  0.91932906  0.00030642    -0.80100
O1317       O  0.04746589  0.00712488  0.95351684    -0.74300
O1318       O  0.07560258  0.61267387  0.00173136    -0.80200
O1319       O  0.40001758  0.50323621  0.02238974    -0.81900
O1320       O  0.42282796  0.88066766  0.99281096    -0.80200
C1321       C  0.05317299  0.53290717  0.95634362     0.88000
O1322       O  0.49136559  0.94671768  0.97593046    -0.87300
O1323       O  0.04257581  0.98898859  0.01955774    -0.87400
O1324       O  0.50957508  0.95480402  0.04159750    -0.74500
Mg1325     Mg  0.03010475  0.57158716  0.98098469     1.58000
O1326       O  0.10556919  0.59268851  0.01695268    -0.81900
H1327       H  0.44369296  0.50611882  0.94097656    -0.05600
O1328       O  0.44662948  0.95045794  0.01727791    -0.87100
H1329       H  0.43970306  0.94077109  0.05814152    -0.05400
H1330       H  0.48855091  0.93940680  0.93456758    -0.05600
C1331       C  0.44437159  0.95782926  0.04153107     0.88000
C1332       C  0.45932121  0.51601981  0.95887552     0.88500
C1333       C  0.47845569  0.94372959  0.95298889     0.88600
H1334       H  0.04887680  0.98634888  0.06063353    -0.05600
O1335       O  0.04171081  0.54788375  0.04626114    -0.74600
Mg1336     Mg  0.46768619  0.92115786  0.01390401     1.58000
H1337       H  0.00809928  0.55722966  0.06027395    -0.05600
C1338       C  0.37687528  0.47622743  0.01481620     0.93600
O1339       O  0.39118313  0.89958672  0.98005779    -0.81800
C1340       C  0.39622641  0.87644505  0.98451280     0.93600
O1341       O  0.00808125  0.60266503  0.98198445    -0.81800
Mg1342     Mg  0.07429299  0.53936030  0.01783877     1.58200
O1343       O  0.38234191  0.95736869  0.00363654    -0.80100
O1344       O  0.09162137  0.98440147  0.98008602    -0.81800
O1345       O  0.37058215  0.65023933  0.31213305    -0.87400
C1346       C  0.30442656  0.61282104  0.37291739     0.88600
Mg1347     Mg  0.40958566  0.69775347  0.31850591     1.58100
O1348       O  0.28411647  0.63674984  0.31090892    -0.87200
O1349       O  0.33203990  0.61999509  0.28341532    -0.74500
C1350       C  0.34987747  0.78782306  0.35292049     0.93700
O1351       O  0.38159882  0.66047398  0.37921744    -0.74300
O1352       O  0.37416400  0.78550590  0.35722795    -0.81800
Mg1353     Mg  0.36248013  0.61915843  0.34679382     1.58000
C1354       C  0.23332851  0.68538271  0.31876526     0.93600
O1355       O  0.34509453  0.57480628  0.31837655    -0.80100
H1356       H  0.27633185  0.63324215  0.26950993    -0.05400
C1357       C  0.30651352  0.69620340  0.37733336     0.88500
O1358       O  0.38596512  0.71855252  0.29021330    -0.74600
O1359       O  0.31665594  0.61427365  0.34993652    -0.87300
O1360       O  0.23270867  0.65860438  0.31785244    -0.80200
C1361       C  0.22043680  0.56455605  0.33866921     0.93700
C1362       C  0.31798824  0.54971911  0.31660791     0.93500
Mg1363     Mg  0.30795266  0.71927255  0.31791769     1.58000
O1364       O  0.32376043  0.76431051  0.34455524    -0.80100
O1365       O  0.29127035  0.67769969  0.28583416    -0.74300
O1366       O  0.24670620  0.56576405  0.34011163    -0.80200
O1367       O  0.41127318  0.62575388  0.34124637    -0.81900
O1368       O  0.42400281  0.77412295  0.33277981    -0.80200
C1369       C  0.28352418  0.64832005  0.28799965     0.88000
O1370       O  0.35409990  0.72569304  0.31734469    -0.87300
O1371       O  0.29769213  0.68786728  0.35292066    -0.87400
O1372       O  0.33548015  0.71448523  0.38339691    -0.74500
Mg1373     Mg  0.28909319  0.59502914  0.31289406     1.58000
O1374       O  0.21864364  0.58989276  0.33673410    -0.81900
H1375       H  0.37751846  0.64859105  0.27101149    -0.05600
O1376       O  0.38650343  0.70119136  0.35511477    -0.87100
H1377       H  0.39769115  0.70498782  0.39587534    -0.05400
H1378       H  0.35986279  0.73817485  0.27692709    -0.05600
C1379       C  0.38903220  0.68979215  0.37748527     0.88000
C1380       C  0.36101419  0.64007600  0.28819802     0.88500
C1381       C  0.36642128  0.72819772  0.29426029     0.88600
H1382       H  0.28931594  0.68692627  0.39396639    -0.05600
O1383       O  0.28343349  0.62090533  0.37574945    -0.74600
Mg1384     Mg  0.37967522  0.74196381  0.35624040     1.58000
H1385       H  0.31163716  0.60442730  0.39096776    -0.05600
C1386       C  0.43716491  0.65221591  0.34240586     0.93600
O1387       O  0.45033585  0.74825621  0.32545726    -0.81800
C1388       C  0.44915555  0.77397950  0.32749009     0.93600
O1389       O  0.29293774  0.55103641  0.31606775    -0.81800
Mg1390     Mg  0.25937855  0.64037030  0.34552781     1.58200
O1391       O  0.43806781  0.67916743  0.34338743    -0.80100
O1392       O  0.25896409  0.71194536  0.32073716    -0.81800
O1393       O  0.13294649  0.85222287  0.64688510    -0.87400
C1394       C  0.19711480  0.89287461  0.71047445     0.88600
Mg1395     Mg  0.09336284  0.80475177  0.64828319     1.58100
O1396       O  0.22272509  0.87106182  0.64952127    -0.87200
O1397       O  0.17207567  0.88519025  0.62036034    -0.74500
C1398       C  0.15583071  0.71984688  0.68113933     0.93700
O1399       O  0.11972887  0.83970651  0.71450756    -0.74300
O1400       O  0.12946324  0.71832086  0.68450487    -0.81800
Mg1401     Mg  0.13881668  0.88157099  0.68355176     1.58000
C1402       C  0.27155976  0.82111576  0.66158361     0.93600
O1403       O  0.15432053  0.92527354  0.65674090    -0.80100
H1404       H  0.23243109  0.87584629  0.60857276    -0.05400
C1405       C  0.19356826  0.80771921  0.71429379     0.88500
O1406       O  0.11773711  0.78385885  0.62208993    -0.74600
O1407       O  0.18529680  0.88873388  0.68690693    -0.87300
O1408       O  0.27250467  0.84690746  0.66903877    -0.80200
C1409       C  0.28328303  0.94020064  0.67763992     0.93700
C1410       C  0.18007786  0.95167259  0.65828487     0.93500
Mg1411     Mg  0.19650006  0.78862105  0.65443874     1.58000
O1412       O  0.18163867  0.74619470  0.68227885    -0.80100
O1413       O  0.21426615  0.83035073  0.62325236    -0.74300
O1414       O  0.25734176  0.94001849  0.67743517    -0.80200
O1415       O  0.09016346  0.87481001  0.67964087    -0.81900
O1416       O  0.07499384  0.72888149  0.66733797    -0.80200
C1417       C  0.22387251  0.86004297  0.62648244     0.88000
O1418       O  0.14950519  0.78067690  0.65199686    -0.87300
O1419       O  0.20383319  0.81851457  0.69082707    -0.87400
O1420       O  0.16461730  0.78729423  0.71798162    -0.74500
Mg1421     Mg  0.21416709  0.91068825  0.65100576     1.58000
O1422       O  0.28475095  0.91501228  0.68197794    -0.81900
H1423       H  0.12746370  0.85594068  0.60574095    -0.05600
O1424       O  0.11210881  0.79925012  0.68844638    -0.87100
H1425       H  0.10041422  0.79402612  0.72895075    -0.05400
H1426       H  0.14563789  0.76519023  0.61252621    -0.05600
C1427       C  0.10991760  0.81002414  0.71123580     0.88000
C1428       C  0.14323538  0.86403430  0.62365999     0.88500
C1429       C  0.13791980  0.77580046  0.62832736     0.88600
H1430       H  0.20945718  0.81622021  0.73212651    -0.05600
O1431       O  0.21835428  0.88584415  0.71562179    -0.74600
Mg1432     Mg  0.12139193  0.76038632  0.68885895     1.58000
H1433       H  0.18916327  0.90247242  0.72697489    -0.05600
C1434       C  0.06470398  0.84961955  0.67298796     0.93600
O1435       O  0.05079320  0.75476926  0.65184011    -0.81800
C1436       C  0.05041400  0.72928169  0.65943096     0.93600
O1437       O  0.20647619  0.95303886  0.65604407    -0.81800
Mg1438     Mg  0.24302103  0.86562502  0.68827917     1.58200
O1439       O  0.06365629  0.82374439  0.66574061    -0.80100
O1440       O  0.24580162  0.79547573  0.65645771    -0.81800
C1441       C  0.35040610  0.89912972  0.78006895    -0.15500
C1442       C  0.37949542  0.91329718  0.76886528    -0.30700
H1443       H  0.33201947  0.87656740  0.77120076     0.13500
H1444       H  0.39891665  0.93355134  0.77961223     0.14100
C1445       C  0.33218310  0.79171947  0.54002574    -0.15500
C1446       C  0.30062400  0.77315889  0.54287241    -0.30700
H1447       H  0.34266793  0.79714913  0.51931715     0.13500
H1448       H  0.29113488  0.76606296  0.56375996     0.14100
C1449       C  0.49463651  0.77842138  0.55087415    -0.15500
C1450       C  0.46448511  0.76580338  0.55954280    -0.30700
H1451       H  0.01166961  0.79633811  0.56278854     0.13500
H1452       H  0.44551530  0.74652274  0.54753271     0.14100
C1453       C  0.35613351  0.96341662  0.78692081    -0.15500
C1454       C  0.37681582  0.99518059  0.78921900    -0.30700
H1455       H  0.34640875  0.95332049  0.76641658     0.13500
H1456       H  0.38926529  0.00531395  0.80882660     0.14100
C1457       C  0.29544156  0.54709492  0.56371319    -0.15500
C1458       C  0.30047278  0.55540180  0.53647392    -0.30700
H1459       H  0.27230651  0.52803162  0.57017821     0.13500
H1460       H  0.32441060  0.57181889  0.52957268     0.14100
C1461       C  0.47927617  0.71051282  0.54601491    -0.15500
C1462       C  0.45751512  0.67909741  0.54363710    -0.30700
H1463       H  0.48819238  0.72040695  0.56675210     0.13500
H1464       H  0.44600316  0.66891846  0.52370575     0.14100
C1465       C  0.03680751  0.89391606  0.78642580    -0.15500
C1466       C  0.00515195  0.88029034  0.78932940    -0.30700
H1467       H  0.04666162  0.89823949  0.76549648     0.13500
H1468       H  0.49910199  0.87852539  0.80828262     0.14100
C1469       C  0.02964352  0.61291530  0.79408993    -0.15500
C1470       C  0.03447587  0.62269621  0.76721151    -0.30700
H1471       H  0.00594785  0.59514424  0.80058448     0.13500
H1472       H  0.05725956  0.64282166  0.76127775     0.14100
C1473       C  0.10239342  0.95103988  0.78176028    -0.15500
C1474       C  0.08803572  0.96595838  0.77032578    -0.30700
H1475       H  0.12591175  0.95742080  0.77473138     0.13500
H1476       H  0.06626149  0.96253913  0.77941776     0.14100
C1477       C  0.12429220  0.62985764  0.79084695    -0.15500
C1478       C  0.09368965  0.61821427  0.79706106    -0.30700
H1479       H  0.14255189  0.65182651  0.80055740     0.13500
H1480       H  0.07574060  0.59839064  0.78470940     0.14100
C1481       C  0.23716871  0.55207971  0.53657131    -0.15500
C1482       C  0.20702061  0.54011807  0.54469704    -0.30700
H1483       H  0.25580131  0.57254108  0.54778942     0.13500
H1484       H  0.18851268  0.51756301  0.53604883     0.14100
C1485       C  0.24094513  0.70714781  0.56673920    -0.15500
C1486       C  0.24863084  0.70393405  0.54042396    -0.30700
H1487       H  0.23962762  0.72838236  0.57220077     0.13500
H1488       H  0.24653177  0.68125760  0.53399548     0.14100
C1489       C  0.04716771  0.84377463  0.88156141    -0.15500
C1490       C  0.06311225  0.87594170  0.88348127    -0.30700
H1491       H  0.04173339  0.83231544  0.86106192     0.13500
H1492       H  0.07117020  0.88751455  0.90379548     0.14100
C1493       C  0.06737059  0.70494761  0.89118116    -0.15500
C1494       C  0.05265357  0.67398176  0.88282206    -0.30700
H1495       H  0.08792553  0.72312079  0.88009175     0.13500
H1496       H  0.03034048  0.65680566  0.89235759     0.14100
C1497       C  0.28531108  0.85847073  0.89004586    -0.15500
C1498       C  0.31422077  0.87198756  0.87833591    -0.30700
H1499       H  0.26831332  0.86505108  0.88257971     0.13500
H1500       H  0.33004247  0.86315262  0.88398276     0.14100
C1501       C  0.14626688  0.69917750  0.88476023    -0.15500
C1502       C  0.11504031  0.67868607  0.88645043    -0.30700
H1503       H  0.15720889  0.70861227  0.86461138     0.13500
H1504       H  0.10396714  0.67147628  0.90686866     0.14100
C1505       C  0.12601297  0.93534031  0.87938069    -0.15500
C1506       C  0.14152735  0.92066020  0.88907578    -0.30700
H1507       H  0.13181375  0.95869690  0.88773244     0.13500
H1508       H  0.13758700  0.89855520  0.87926729     0.14100
C1509       C  0.31906841  0.93593599  0.88540079    -0.15500
C1510       C  0.29979959  0.94826524  0.88597896    -0.30700
H1511       H  0.32704144  0.93059455  0.90490726     0.13500
H1512       H  0.28930660  0.95053156  0.86659995     0.14100
C1513       C  0.42510906  0.79433947  0.12359004    -0.15500
C1514       C  0.42326300  0.79659884  0.09564467    -0.33700
H1515       H  0.43467883  0.77979769  0.13162232     0.13500
H1516       H  0.41716401  0.81364735  0.08705016     0.14100
C1517       C  0.37678738  0.81761480  0.11770976    -0.15500
C1518       C  0.35164301  0.78854721  0.11285122    -0.30700
H1519       H  0.38260726  0.83728779  0.10333673     0.13500
H1520       H  0.34577227  0.76938972  0.12784978     0.14100
C1521       C  0.27363841  0.99620054  0.44766875    -0.15500
C1522       C  0.28850378  0.97912187  0.45015246    -0.30700
H1523       H  0.26748601  0.50097429  0.42519577     0.13500
H1524       H  0.29143269  0.97127286  0.47071839     0.14100
C1525       C  0.26812478  0.79014781  0.44846306    -0.15500
C1526       C  0.26630589  0.81713994  0.44970983    -0.30700
H1527       H  0.27614098  0.78409872  0.42946336     0.13500
H1528       H  0.25716477  0.82246023  0.46838778     0.14100
C1529       C  0.37990809  0.85853991  0.22226269    -0.15500
C1530       C  0.40891147  0.86920837  0.21146465    -0.30700
H1531       H  0.36022656  0.83624944  0.21431402     0.13500
H1532       H  0.42917969  0.88944851  0.22135849     0.14100
C1533       C  0.04605418  0.79550321  0.43309051    -0.15500
C1534       C  0.04948533  0.80036771  0.46107753    -0.30700
H1535       H  0.02834387  0.77228845  0.42497362     0.13500
H1536       H  0.06481625  0.82468460  0.46878266     0.14100
C1537       C  0.17675871  0.96741004  0.45637922    -0.15500
C1538       C  0.20810006  0.98582638  0.45117995    -0.30700
H1539       H  0.16810112  0.96244495  0.47772779     0.13500
H1540       H  0.21624460  0.98815840  0.42975658     0.14100
C1541       C  0.49487806  0.87140358  0.20760424    -0.15500
C1542       C  0.46338775  0.85751011  0.21168734    -0.30700
H1543       H  0.00850953  0.87947286  0.18748916     0.13500
H1544       H  0.45457553  0.85593895  0.23281358     0.14100
C1545       C  0.41775705  0.63368934  0.13023920    -0.15500
C1546       C  0.44542198  0.65075644  0.11687906    -0.30700
H1547       H  0.39753517  0.63578162  0.12383205     0.13500
H1548       H  0.46458702  0.64611664  0.12122061     0.14100
C1549       C  0.35758052  0.56827519  0.13391975    -0.15500
C1550       C  0.35840812  0.57148340  0.10595124    -0.30700
H1551       H  0.33478924  0.55362003  0.14382599     0.13500
H1552       H  0.38105943  0.58216841  0.09544985     0.14100
C1553       C  0.40691484  0.53310378  0.23154892    -0.15500
C1554       C  0.40966680  0.53383112  0.20365697    -0.30700
H1555       H  0.40738464  0.55355608  0.24173860     0.13500
H1556       H  0.40400170  0.51181445  0.19259330     0.14100
C1557       C  0.21119754  0.62935010  0.10164345    -0.15500
C1558       C  0.21625514  0.63332357  0.12947416    -0.30700
H1559       H  0.19229170  0.60646637  0.09382155     0.13500
H1560       H  0.23216232  0.65732106  0.13754472     0.14100
C1561       C  0.20249595  0.56494197  0.12783626    -0.15500
C1562       C  0.18755665  0.53621971  0.11498879    -0.30700
H1563       H  0.22642506  0.58227975  0.12155821     0.13500
H1564       H  0.16264801  0.51996633  0.11891417     0.14100
C1565       C  0.12554465  0.53647994  0.20568330    -0.15500
C1566       C  0.12555917  0.54058506  0.23357831    -0.30700
H1567       H  0.11202604  0.51225177  0.19727257     0.13500
H1568       H  0.14163516  0.56387667  0.24261935     0.14100
C1569       C  0.05550854  0.73725192  0.44612480    -0.15500
C1570       C  0.02585169  0.72816567  0.45371993    -0.30700
H1571       H  0.07541993  0.75402735  0.45896759     0.13500
H1572       H  0.00607751  0.70898571  0.44229311     0.14100
C1573       C  0.18347742  0.70595087  0.45004937    -0.15500
C1574       C  0.21505551  0.72377005  0.44731578    -0.30700
H1575       H  0.17326568  0.69958904  0.47082726     0.13500
H1576       H  0.22486493  0.73231975  0.42666318     0.14100
C1577       C  0.46150023  0.60339225  0.21212360    -0.15500
C1578       C  0.49069684  0.62932188  0.21125228    -0.30700
H1579       H  0.45564460  0.58922068  0.23097860     0.13500
H1580       H  0.99444538  0.63021453  0.19427071     0.14100
C1581       C  0.11714203  0.59808910  0.21809248    -0.15500
C1582       C  0.14751959  0.60885305  0.21153254    -0.30700
H1583       H  0.09812355  0.58014156  0.20515878     0.13500
H1584       H  0.16601311  0.62891594  0.22330240     0.14100
O1585       O  0.62576138  0.15486182  0.35090633    -0.87400
C1586       C  0.62102503  0.23641785  0.36020892     0.88600
Mg1587     Mg  0.62584900  0.13594317  0.31007813     1.58100
O1588       O  0.55056909  0.16430953  0.37419956    -0.87200
O1589       O  0.59785024  0.13939319  0.38919494    -0.74500
C1590       C  0.50736582  0.13203778  0.23896898     0.93700
O1591       O  0.65408061  0.21689732  0.31071126    -0.74300
O1592       O  0.53517582  0.13732220  0.23452417    -0.81800
Mg1593     Mg  0.65889321  0.20588068  0.35677475     1.58000
C1594       C  0.96758952  0.15475017  0.34617085     0.93600
O1595       O  0.67098105  0.20281423  0.40359552    -0.80100
H1596       H  0.52709873  0.12401537  0.39652072    -0.05400
C1597       C  0.55497776  0.20057117  0.29581538     0.88500
O1598       O  0.57290217  0.09924494  0.31190401    -0.74600
O1599       O  0.62017833  0.21169655  0.36851776    -0.87300
O1600       O  0.99078517  0.17432832  0.36131739    -0.80200
C1601       C  0.56059381  0.22692674  0.41934144     0.93700
C1602       C  0.66009933  0.20344240  0.42773877     0.93500
Mg1603     Mg  0.51000713  0.12979085  0.30953064     1.58000
O1604       O  0.49757760  0.13280045  0.26350967    -0.80100
O1605       O  0.51498609  0.11892573  0.35536971    -0.74300
O1606       O  0.58297871  0.22077928  0.42041811    -0.80200
O1607       O  0.69962713  0.19949713  0.34371488    -0.81900
O1608       O  0.58696859  0.11641562  0.24374833    -0.80200
C1609       C  0.53058427  0.13556008  0.37638333     0.88000
O1610       O  0.54871836  0.12420843  0.29705569    -0.87300
O1611       O  0.54278543  0.18097348  0.31496856    -0.87400
O1612       O  0.56983094  0.19620515  0.27623469    -0.74500
Mg1613     Mg  0.59062409  0.18129010  0.40171651     1.58000
O1614       O  0.54205188  0.21944488  0.39837759    -0.81900
H1615       H  0.61375934  0.11299163  0.36934485    -0.05600
O1616       O  0.61796465  0.17210944  0.29132468    -0.87100
H1617       H  0.64188288  0.21280997  0.26958412    -0.05400
H1618       H  0.52536269  0.07759082  0.30697683    -0.05600
C1619       C  0.63819338  0.20083587  0.28953371     0.88000
C1620       C  0.61295673  0.13504230  0.36982154     0.88500
C1621       C  0.54794040  0.09941058  0.30498483     0.88600
H1622       H  0.55384897  0.22244628  0.29623914    -0.05600
O1623       O  0.59608420  0.23668049  0.35334277    -0.74600
Mg1624     Mg  0.57770036  0.15479415  0.26349507     1.58000
H1625       H  0.64364981  0.25810483  0.35788468    -0.05600
C1626       C  0.70248785  0.18344620  0.32392957     0.93600
O1627       O  0.62737716  0.11814328  0.26707428    -0.81800
C1628       C  0.61000670  0.11122609  0.24535979     0.93600
O1629       O  0.63215572  0.19809588  0.43100668    -0.81800
Mg1630     Mg  0.54295525  0.20056156  0.35543158     1.58200
O1631       O  0.67951690  0.16440333  0.30836155    -0.80100
O1632       O  0.97027089  0.13815733  0.32683105    -0.81800
C1633       C  0.66017985  0.09750485  0.19203041     0.03200
C1634       C  0.64993333  0.06441783  0.18780268     0.03200
C1635       C  0.66365803  0.05598033  0.16593975    -0.17300
C1636       C  0.68739363  0.07941704  0.14870245     0.03200
C1637       C  0.69710320  0.11220197  0.15299049     0.03200
C1638       C  0.68392920  0.12073783  0.17497790    -0.17300
H1639       H  0.69147778  0.14590796  0.17824805     0.05200
H1640       H  0.65680738  0.03095063  0.16317808     0.05200
C1641       C  0.90843635  0.06837736  0.19647012     0.03200
C1642       C  0.93102338  0.10128969  0.19914713     0.03200
C1643       C  0.93302407  0.12278583  0.17843654    -0.17300
C1644       C  0.91330358  0.11218860  0.15476734     0.03200
C1645       C  0.89095941  0.07897765  0.15137447     0.03200
C1646       C  0.88913409  0.05745219  0.17235342    -0.17300
H1647       H  0.87163512  0.03213656  0.17045824     0.05200
H1648       H  0.95058083  0.14808106  0.18054685     0.05200
O1649       O  0.55455630  0.36690589  0.30797061    -0.87400
C1650       C  0.54271942  0.44518470  0.30297995     0.88600
Mg1651     Mg  0.55183828  0.34146961  0.34634404     1.58100
O1652       O  0.61998792  0.45841771  0.29420875    -0.87200
O1653       O  0.58239615  0.38673813  0.27017603    -0.74500
C1654       C  0.65174775  0.45467551  0.43182723     0.93700
O1655       O  0.51396142  0.38570880  0.34834405    -0.74300
O1656       O  0.62599221  0.42801154  0.43484487    -0.81800
Mg1657     Mg  0.51625984  0.37702314  0.30129761     1.58000
C1658       C  0.69245862  0.03191664  0.33912191     0.93600
O1659       O  0.51025740  0.36716771  0.25423031    -0.80100
H1660       H  0.64931168  0.44841104  0.27341472    -0.05400
C1661       C  0.60031572  0.47186627  0.37661033     0.88500
O1662       O  0.60522788  0.36419238  0.35071059    -0.74600
O1663       O  0.55016130  0.42591992  0.29408451    -0.87300
O1664       O  0.66938982  0.02746555  0.32390990    -0.80200
C1665       C  0.61162905  0.51409333  0.25475208     0.93700
C1666       C  0.51907054  0.38309554  0.23151788     0.93500
Mg1667     Mg  0.65287016  0.45873940  0.36229346     1.58000
O1668       O  0.65954589  0.46948114  0.40860655    -0.80100
O1669       O  0.65474794  0.44977643  0.31556951    -0.74300
O1670       O  0.59367339  0.48507299  0.24657633    -0.80200
O1671       O  0.97792901  0.32656017  0.31042112    -0.81900
O1672       O  0.57651132  0.35239467  0.41874548    -0.80200
C1673       C  0.64188315  0.45263452  0.29347261     0.88000
O1674       O  0.61889034  0.41004069  0.37024511    -0.87300
O1675       O  0.61436335  0.46873577  0.35662270    -0.87400
O1676       O  0.58764377  0.45021044  0.39505304    -0.74500
Mg1677     Mg  0.58471443  0.43515567  0.26210553     1.58000
O1678       O  0.62200955  0.02106260  0.27957158    -0.81900
H1679       H  0.57216968  0.34369280  0.28670056    -0.05600
O1680       O  0.54923790  0.37858203  0.37065562    -0.87100
H1681       H  0.51930728  0.38845678  0.39058689    -0.05400
H1682       H  0.65009584  0.39563898  0.36314101    -0.05600
C1683       C  0.52708060  0.38400404  0.37080363     0.88000
C1684       C  0.56958000  0.36466326  0.28831909     0.88500
C1685       C  0.62583005  0.39018481  0.36190837     0.88600
H1686       H  0.59835610  0.49321128  0.37819273    -0.05600
O1687       O  0.56284566  0.47084216  0.31493725    -0.74600
Mg1688     Mg  0.58521339  0.40193042  0.40280065     1.58000
H1689       H  0.51833085  0.43933398  0.30173878    -0.05600
C1690       C  0.97693535  0.30551963  0.32703813     0.93600
O1691       O  0.54617912  0.31555557  0.38689951    -0.81800
C1692       C  0.55682693  0.32338137  0.41173269     0.93600
O1693       O  0.54505196  0.40966359  0.22957087    -0.81800
Mg1694     Mg  0.61626769  0.49456870  0.31928464     1.58200
O1695       O  0.00004235  0.31014629  0.34228863    -0.80100
O1696       O  0.69154938  0.01037605  0.35496563    -0.81800
O1697       O  0.80946935  0.36073187  0.34163917    -0.87400
C1698       C  0.85031668  0.43406608  0.39817505     0.88600
Mg1699     Mg  0.83267017  0.35621373  0.30515611     1.58100
O1700       O  0.79102177  0.43076840  0.35417046    -0.87200
O1701       O  0.76506152  0.35648216  0.35543400    -0.74500
C1702       C  0.89098457  0.49860962  0.24437485     0.93700
O1703       O  0.88243895  0.40195865  0.35724047    -0.74300
O1704       O  0.89805569  0.47638003  0.24440779    -0.81800
Mg1705     Mg  0.83536115  0.36987977  0.38002306     1.58000
C1706       C  0.81926867  0.01899901  0.31540927     0.93600
O1707       O  0.79270814  0.33673147  0.40569057    -0.80100
H1708       H  0.74706646  0.40832508  0.33853496    -0.05400
C1709       C  0.88261690  0.48799069  0.32652818     0.88500
O1710       O  0.80638999  0.37343519  0.27677416    -0.74600
O1711       O  0.82839464  0.40954262  0.38752447    -0.87300
O1712       O  0.80920615  0.00126672  0.33693642    -0.80200
C1713       C  0.79194054  0.46418602  0.42191316     0.93700
C1714       C  0.77287720  0.33722685  0.42238849     0.93500
Mg1715     Mg  0.82836530  0.46514861  0.28700687     1.58000
O1716       O  0.87563189  0.99920714  0.26116010    -0.80100
O1717       O  0.78101302  0.43271145  0.30952283    -0.74300
O1718       O  0.78719111  0.43551789  0.42176266    -0.80200
O1719       O  0.83938918  0.32601813  0.37339091    -0.81900
O1720       O  0.87967503  0.39914546  0.24588298    -0.80200
C1721       C  0.77201031  0.42346917  0.33449205     0.88000
O1722       O  0.83545477  0.42563295  0.27869175    -0.87300
O1723       O  0.85346823  0.47399053  0.32590149    -0.87400
O1724       O  0.89786499  0.47852561  0.31164481    -0.74500
Mg1725     Mg  0.77937440  0.39726953  0.38764459     1.58000
O1726       O  0.80357802  0.48270701  0.40086114    -0.81900
H1727       H  0.76754889  0.32605424  0.32741720    -0.05600
O1728       O  0.87218574  0.40377915  0.31262855    -0.87100
H1729       H  0.91622604  0.42591584  0.32803249    -0.05400
H1730       H  0.79749903  0.40347192  0.25369832    -0.05600
C1731       C  0.89128867  0.41095670  0.33221158     0.88000
C1732       C  0.78031727  0.34674294  0.34094272     0.88500
C1733       C  0.81284490  0.40116441  0.26873091     0.88600
H1734       H  0.89541513  0.50859315  0.34013935    -0.05600
O1735       O  0.85561916  0.46178458  0.39119353    -0.74600
Mg1736     Mg  0.88482585  0.43793952  0.27918369     1.58000
H1737       H  0.86575676  0.43190018  0.41320342    -0.05600
C1738       C  0.84903731  0.31754470  0.35237768     0.93600
O1739       O  0.85539917  0.35086613  0.26625726    -0.81800
C1740       C  0.87060525  0.36907025  0.24596845     0.93600
O1741       O  0.76654225  0.35986737  0.42216380    -0.81800
Mg1742     Mg  0.82893659  0.47832468  0.36222376     1.58200
O1743       O  0.85652700  0.33318975  0.32958796    -0.80100
O1744       O  0.82998599  0.01151263  0.29449435    -0.81800
C1745       C  0.93789771  0.34006559  0.18981683     0.03200
C1746       C  0.91024020  0.34272747  0.18996682     0.03200
C1747       C  0.88694441  0.32627777  0.16923493    -0.17300
C1748       C  0.88970828  0.30641334  0.14918325     0.03200
C1749       C  0.91697124  0.30324200  0.14934324     0.03200
C1750       C  0.94063062  0.32015235  0.16966920    -0.17300
H1751       H  0.96133638  0.31745524  0.16999028     0.05200
H1752       H  0.86613100  0.32874132  0.16868613     0.05200
O1753       O  0.68862741  0.47301451  0.99104028    -0.87400
C1754       C  0.76477004  0.02036114  0.93755578     0.88600
Mg1755     Mg  0.68642870  0.49583196  0.02871664     1.58100
O1756       O  0.75919927  0.45448232  0.97985267    -0.87200
O1757       O  0.68535196  0.42787314  0.97824580    -0.74500
C1758       C  0.82805061  0.06054658  0.09307462     0.93700
O1759       O  0.73141288  0.05029659  0.97585896    -0.74300
O1760       O  0.80587355  0.06697069  0.08970858    -0.81800
Mg1761     Mg  0.70025739  0.00262421  0.95164854     1.58000
C1762       C  0.84703262  0.47645102  0.01639993     0.93600
O1763       O  0.66589870  0.45854203  0.92498175    -0.80100
H1764       H  0.73856021  0.40925741  0.99386901    -0.05400
C1765       C  0.82033956  0.05245081  0.01027433     0.88500
O1766       O  0.70500340  0.46821538  0.05438872    -0.74600
O1767       O  0.74001637  0.99620999  0.94488571    -0.87300
O1768       O  0.82877127  0.46615103  0.99511561    -0.80200
C1769       C  0.78929016  0.45594602  0.91132040     0.93700
C1770       C  0.66596071  0.43684864  0.90971900     0.93500
Mg1771     Mg  0.79666196  0.49142472  0.04622939     1.58000
O1772       O  0.82979217  0.03951778  0.07801347    -0.80100
O1773       O  0.76420968  0.44302017  0.02341014    -0.74300
O1774       O  0.76149654  0.45187137  0.91193013    -0.80200
O1775       O  0.65647334  0.00640584  0.95919522    -0.81900
O1776       O  0.73061883  0.04541714  0.08700209    -0.80200
C1777       C  0.75339324  0.43452394  0.99860268     0.88000
O1778       O  0.75675382  0.49748637  0.05471671    -0.87300
O1779       O  0.80694352  0.02285914  0.01098734    -0.87400
O1780       O  0.80961977  0.06769560  0.02356467    -0.74500
Mg1781     Mg  0.72508126  0.44295035  0.94638330     1.58000
O1782       O  0.80791365  0.46639516  0.93231127    -0.81900
H1783       H  0.65454822  0.43044775  0.00489637    -0.05600
O1784       O  0.73530577  0.03914028  0.01980514    -0.87100
H1785       H  0.75581561  0.08425680  0.00558210    -0.05400
H1786       H  0.73350753  0.45635036  0.07599826    -0.05600
C1787       C  0.74138254  0.05893519  0.00085511     0.88000
C1788       C  0.67505044  0.44337957  0.99174995     0.88500
C1789       C  0.73203363  0.47364945  0.06256448     0.88600
H1790       H  0.84113782  0.06556220  0.99750189    -0.05600
O1791       O  0.79165002  0.02668436  0.94696467    -0.74600
Mg1792     Mg  0.76873622  0.05241303  0.05432045     1.58000
H1793       H  0.76335536  0.03733618  0.92364652    -0.05600
C1794       C  0.64911489  0.01727238  0.98031267     0.93600
O1795       O  0.68327916  0.02228559  0.06621760    -0.81800
C1796       C  0.70126320  0.03668679  0.08692417     0.93600
O1797       O  0.68733715  0.42925564  0.91212545    -0.81800
Mg1798     Mg  0.81000663  0.99972310  0.97362243     1.58200
O1799       O  0.66576759  0.02569937  0.00264689    -0.80100
O1800       O  0.84042846  0.48799196  0.03746636    -0.81800
O1801       O  0.78764555  0.30490749  0.99001183    -0.87400
C1802       C  0.75334830  0.23101524  0.93520108     0.88600
Mg1803     Mg  0.81251249  0.30648626  0.02775072     1.58100
O1804       O  0.69902925  0.23852980  0.97809294    -0.87200
O1805       O  0.74963030  0.31278071  0.97607630    -0.74500
C1806       C  0.72417812  0.16393835  0.08727704     0.93700
O1807       O  0.81609884  0.26008418  0.97704580    -0.74300
O1808       O  0.75278612  0.18677879  0.08882840    -0.81800
Mg1809     Mg  0.80446500  0.29444701  0.95250297     1.58000
C1810       C  0.63039646  0.15122758  0.01481623     0.93600
O1811       O  0.79802836  0.32919638  0.92408893    -0.80100
H1812       H  0.67804115  0.26220956  0.99244639    -0.05400
C1813       C  0.72690201  0.17570660  0.00649279     0.88500
O1814       O  0.76801195  0.29129596  0.05380376    -0.74600
O1815       O  0.75739054  0.25691477  0.94422834    -0.87300
O1816       O  0.63891853  0.17013039  0.99396032    -0.80200
C1817       C  0.66745824  0.20700038  0.91030736     0.93700
C1818       C  0.77789245  0.33103834  0.90838252     0.93500
Mg1819     Mg  0.69624110  0.20012300  0.04493870     1.58000
O1820       O  0.70449951  0.16451417  0.07013285    -0.80100
O1821       O  0.68389129  0.23501162  0.02184283    -0.74300
O1822       O  0.69184366  0.23502361  0.91025001    -0.80200
O1823       O  0.85203089  0.33664870  0.96176058    -0.81900
O1824       O  0.81035268  0.26165185  0.08808258    -0.80200
C1825       C  0.68660778  0.24590276  0.99702937     0.88000
O1826       O  0.74291879  0.23862414  0.05389070    -0.87300
O1827       O  0.71280471  0.19097397  0.00692530    -0.87400
O1828       O  0.75126348  0.18402282  0.02160386    -0.74500
Mg1829     Mg  0.72244951  0.27226991  0.94426022     1.58000
O1830       O  0.65971617  0.18855679  0.93142363    -0.81900
H1831       H  0.78383711  0.34216414  0.00354612    -0.05600
O1832       O  0.80137222  0.25787595  0.02075213    -0.87100
H1833       H  0.82236276  0.23391937  0.00715211    -0.05400
H1834       H  0.72797391  0.26381960  0.07582206    -0.05600
C1835       C  0.81374200  0.25008556  0.00210842     0.88000
C1836       C  0.77446889  0.32104698  0.99033394     0.88500
C1837       C  0.74570888  0.26433427  0.06209168     0.88600
H1838       H  0.71852187  0.15505601  0.99282017    -0.05600
O1839       O  0.73009368  0.20434992  0.94287337    -0.74600
Mg1840     Mg  0.77853454  0.22428401  0.05421062     1.58000
H1841       H  0.77050298  0.23102037  0.92103192    -0.05600
C1842       C  0.86866024  0.34340074  0.98379375     0.93600
O1843       O  0.83769934  0.30983814  0.06806752    -0.81800
C1844       C  0.83218499  0.29114408  0.08867595     0.93600
O1845       O  0.74847206  0.31036367  0.90980296    -0.81800
Mg1846     Mg  0.68635484  0.18972607  0.97017594     1.58200
O1847       O  0.85973778  0.32491013  0.00488947    -0.80100
O1848       O  0.64823320  0.15735078  0.03597907    -0.81800
O1849       O  0.98859153  0.28744605  0.97971169    -0.87400
C1850       C  0.56590624  0.27471179  0.97387890     0.88600
Mg1851     Mg  0.96625084  0.28900164  0.01788004     1.58100
O1852       O  0.99171806  0.21054272  0.95626785    -0.87200
O1853       O  0.97661753  0.26401835  0.93882619    -0.74500
C1854       C  0.94185876  0.16033041  0.08719842     0.93700
O1855       O  0.54522690  0.31169502  0.02138913    -0.74300
O1856       O  0.94467633  0.18759096  0.09285187    -0.81800
Mg1857     Mg  0.54045225  0.31840046  0.97406643     1.58000
C1858       C  0.97304596  0.12404596  0.98905746     0.93600
O1859       O  0.54126380  0.33024588  0.92728433    -0.80100
H1860       H  0.95438300  0.19070327  0.93038136    -0.05400
C1861       C  0.51801263  0.21155695  0.03791692     0.88500
O1862       O  0.92584668  0.23738527  0.01103687    -0.74600
O1863       O  0.54381857  0.27696690  0.96371937    -0.87300
O1864       O  0.48265189  0.14491534  0.97234158    -0.80200
C1865       C  0.55128901  0.20742979  0.91641083     0.93700
C1866       C  0.54319639  0.31969345  0.90328986     0.93500
Mg1867     Mg  0.94868804  0.16779336  0.01762938     1.58000
O1868       O  0.94758344  0.15343647  0.06307882    -0.80100
O1869       O  0.94410368  0.17595298  0.97073400    -0.74300
O1870       O  0.54973182  0.23294304  0.91340745    -0.80200
O1871       O  0.53512975  0.36173517  0.98328812    -0.81900
O1872       O  0.93694414  0.25065066  0.08380780    -0.80200
C1873       C  0.96328903  0.19227197  0.95145408     0.88000
O1874       O  0.94339615  0.20782825  0.02965173    -0.87300
O1875       O  0.50082259  0.20216698  0.01697178    -0.87400
O1876       O  0.51258828  0.22553630  0.05786709    -0.74500
Mg1877     Mg  0.51454611  0.24903435  0.92845628     1.58000
O1878       O  0.53975645  0.18940323  0.93760390    -0.81900
H1879       H  0.95170731  0.28227718  0.95726062    -0.05600
O1880       O  0.49796742  0.27866200  0.03787366    -0.87100
H1881       H  0.53647066  0.29919233  0.06235748    -0.05400
H1882       H  0.89964701  0.18880733  0.01395791    -0.05600
C1883       C  0.52670255  0.29667351  0.04151536     0.88000
C1884       C  0.97161917  0.27843192  0.95861877     0.88500
C1885       C  0.92190446  0.21030343  0.01846392     0.88600
H1886       H  0.53799921  0.20784220  0.03929873    -0.05600
O1887       O  0.56221654  0.24781601  0.98169485    -0.74600
Mg1888     Mg  0.97072905  0.23335245  0.06676444     1.58000
H1889       H  0.58860052  0.29619967  0.97686975    -0.05600
C1890       C  0.51964445  0.36533379  0.00281123     0.93600
O1891       O  0.94249548  0.29111646  0.05713332    -0.81800
C1892       C  0.93284600  0.27451615  0.07927370     0.93600
O1893       O  0.53812481  0.29132149  0.89958431    -0.81800
Mg1894     Mg  0.52027247  0.19631822  0.97813799     1.58200
O1895       O  0.00156057  0.34141989  0.02629277    -0.80100
O1896       O  0.95628058  0.12639939  0.00798949    -0.81800
O1897       O  0.64462360  0.02791354  0.66447938    -0.87400
C1898       C  0.68902281  0.08640021  0.72997286     0.88600
Mg1899     Mg  0.66962624  0.03256058  0.62590949     1.58100
O1900       O  0.63470406  0.09944577  0.69170598    -0.87200
O1901       O  0.60140327  0.02441803  0.68017627    -0.74500
C1902       C  0.73719630  0.18366938  0.58675826     0.93700
O1903       O  0.71667101  0.06061917  0.68202019    -0.74300
O1904       O  0.74266416  0.16050626  0.58639091    -0.81800
Mg1905     Mg  0.66810452  0.02565004  0.70165817     1.58000
C1906       C  0.66122374  0.19259783  0.67169337     0.93600
O1907       O  0.62048451  0.49055567  0.73213299    -0.80100
H1908       H  0.59118613  0.08456186  0.67700011    -0.05400
C1909       C  0.72780535  0.15933187  0.66839392     0.88500
O1910       O  0.64629571  0.05825495  0.60475270    -0.74600
O1911       O  0.66472687  0.06487707  0.71878102    -0.87300
O1912       O  0.65507793  0.17358418  0.69207216    -0.80200
C1913       C  0.63490607  0.11875277  0.76350281     0.93700
C1914       C  0.60473241  0.99042326  0.74485066     0.93500
Mg1915     Mg  0.67406764  0.14797692  0.63011865     1.58000
O1916       O  0.71737149  0.18443198  0.60364471    -0.80100
O1917       O  0.62616481  0.11350056  0.65039057    -0.74300
O1918       O  0.62310287  0.08898204  0.75775286    -0.80200
O1919       O  0.66560189  0.48426511  0.68742752    -0.81900
O1920       O  0.71636801  0.08771028  0.57376788    -0.80200
C1921       C  0.61633317  0.09872961  0.67347263     0.88000
O1922       O  0.67792968  0.10923954  0.61402841    -0.87300
O1923       O  0.69886066  0.14699621  0.66706310    -0.87400
O1924       O  0.74237328  0.15092332  0.65174029    -0.74500
Mg1925     Mg  0.61720055  0.05820524  0.71835976     1.58000
O1926       O  0.65357065  0.14073894  0.74720228    -0.81900
H1927       H  0.60253935  0.99887579  0.64677616    -0.05600
O1928       O  0.70874203  0.07617945  0.64115060    -0.87100
H1929       H  0.75209003  0.09093518  0.65630261    -0.05400
H1930       H  0.63985432  0.09389875  0.58936721    -0.05600
C1931       C  0.72689660  0.07652318  0.65944447     0.88000
C1932       C  0.61575023  0.01613822  0.66308786     0.88500
C1933       C  0.65446754  0.08765745  0.60188087     0.88600
H1934       H  0.74083285  0.17694728  0.68452017    -0.05600
O1935       O  0.69824297  0.11591944  0.72620955    -0.74600
Mg1936     Mg  0.72544855  0.11700737  0.61396776     1.58000
H1937       H  0.70366350  0.07990532  0.74214858    -0.05600
C1938       C  0.67614883  0.48104938  0.66417047     0.93600
O1939       O  0.69530059  0.03653810  0.58628311    -0.81800
C1940       C  0.71000097  0.05913224  0.56896426     0.93600
O1941       O  0.59983077  0.01404248  0.74598657    -0.81800
Mg1942     Mg  0.67579394  0.14291034  0.70625585     1.58200
O1943       O  0.68376597  0.50115002  0.64449845    -0.80100
O1944       O  0.67132144  0.18902379  0.64832271    -0.81800
C1945       C  0.56467001  0.15630834  0.86214339     0.03200
C1946       C  0.59541914  0.16077821  0.86236858     0.03200
C1947       C  0.60504310  0.14853367  0.84024893    -0.17300
C1948       C  0.58496174  0.13242697  0.81732245     0.03200
C1949       C  0.55434737  0.12877277  0.81674978     0.03200
C1950       C  0.54439745  0.14000917  0.83952957    -0.17300
H1951       H  0.52070534  0.13650977  0.83943023     0.05200
H1952       H  0.62778132  0.14999575  0.84200459     0.05200
C1953       C  0.57331684  0.39343093  0.85605931     0.03200
C1954       C  0.60262499  0.42217868  0.85406377     0.03200
C1955       C  0.60997359  0.44014609  0.82933069    -0.17300
C1956       C  0.58852622  0.43057574  0.80679320     0.03200
C1957       C  0.55825887  0.40287472  0.80949189     0.03200
C1958       C  0.55126621  0.38444964  0.83399438    -0.17300
H1959       H  0.52857408  0.36262234  0.83582398     0.05200
H1960       H  0.63274793  0.46194799  0.82760012     0.05200
O1961       O  0.97656429  0.11421159  0.66678079    -0.87400
C1962       C  0.91642902  0.09828541  0.73116500     0.88600
Mg1963     Mg  0.97523464  0.13724369  0.62794720     1.58100
O1964       O  0.90735499  0.03228810  0.69194917    -0.87200
O1965       O  0.98077726  0.07474033  0.68441851    -0.74500
C1966       C  0.82742067  0.05293740  0.58425736     0.93700
O1967       O  0.94286447  0.15339346  0.68277654    -0.74300
O1968       O  0.85154122  0.08053044  0.58000921    -0.81800
Mg1969     Mg  0.97670066  0.13889500  0.70400010     1.58000
C1970       C  0.80848351  0.47272525  0.67375562     0.93600
O1971       O  0.51342430  0.13183798  0.72619955    -0.80100
H1972       H  0.92351854  0.00445945  0.67691655    -0.05400
C1973       C  0.85048461  0.06864357  0.66553024     0.88500
O1974       O  0.95143322  0.08855894  0.60513822    -0.74600
O1975       O  0.93773410  0.09608878  0.71951861    -0.87300
O1976       O  0.82765274  0.48579705  0.69383604    -0.80200
C1977       C  0.88449578  0.01031593  0.76272393     0.93700
C1978       C  0.01073489  0.11074500  0.74870422     0.93500
Mg1979     Mg  0.86202030  0.02651684  0.62887361     1.58000
O1980       O  0.82613888  0.03557460  0.60490390    -0.80100
O1981       O  0.89552096  0.01145931  0.64964489    -0.74300
O1982       O  0.91334597  0.03207311  0.75990854    -0.80200
O1983       O  0.51984641  0.18442848  0.68252940    -0.81900
O1984       O  0.92500582  0.13276182  0.57205513    -0.80200
C1985       C  0.90932662  0.01555255  0.67325015     0.88000
O1986       O  0.90115841  0.06902787  0.61280518    -0.87300
O1987       O  0.86325442  0.05212048  0.66564042    -0.87400
O1988       O  0.85775025  0.09050353  0.64739968    -0.74500
Mg1989     Mg  0.94558083  0.05594953  0.72121113     1.58000
O1990       O  0.86391687  0.00474852  0.74400917    -0.81900
H1991       H  0.00646037  0.10128097  0.65123578    -0.05600
O1992       O  0.93138867  0.13335299  0.64015218    -0.87100
H1993       H  0.91474199  0.16051822  0.65574143    -0.05400
H1994       H  0.91714556  0.04634980  0.58863477    -0.05600
C1995       C  0.92912782  0.14959338  0.65915394     0.88000
C1996       C  0.98877267  0.09715577  0.66670006     0.88500
C1997       C  0.92274635  0.06714225  0.60138728     0.88600
H1998       H  0.83286277  0.06444387  0.68108660    -0.05600
O1999       O  0.88761411  0.07738381  0.72727734    -0.74600
Mg2000     Mg  0.89284761  0.10887211  0.61059552     1.58000
H2001       H  0.92241365  0.11903918  0.74411165    -0.05600
C2002       C  0.52344241  0.19910499  0.65956124     0.93600
O2003       O  0.97414818  0.16166234  0.58847189    -0.81800
C2004       C  0.95340434  0.15573312  0.56977955     0.93600
O2005       O  0.98652274  0.08293972  0.75140698    -0.81800
Mg2006     Mg  0.86391047  0.02896593  0.70435264     1.58200
O2007       O  0.50313007  0.18794322  0.64002966    -0.80100
O2008       O  0.81153245  0.48618484  0.65020969    -0.81800
O2009       O  0.95413449  0.32390790  0.68860119    -0.87400
C2010       C  0.95359716  0.40903054  0.69313396     0.88600
Mg2011     Mg  0.96098208  0.30372795  0.65040882     1.58100
O2012       O  0.88015877  0.33844312  0.70213560    -0.87200
O2013       O  0.92347990  0.31152767  0.72510028    -0.74500
C2014       C  0.85478358  0.30305076  0.56482078     0.93700
O2015       O  0.99073649  0.38592307  0.64875050    -0.74300
O2016       O  0.88182380  0.30538210  0.56285979    -0.81800
Mg2017     Mg  0.98791654  0.37479619  0.69582900     1.58000
C2018       C  0.80374989  0.32794823  0.65573488     0.93600
O2019       O  0.99277067  0.37044760  0.74260076    -0.80100
H2020       H  0.85308974  0.29797592  0.72326286    -0.05400
C2021       C  0.89872058  0.37311747  0.62116384     0.88500
O2022       O  0.90818583  0.26751497  0.64541637    -0.74600
O2023       O  0.94948377  0.38305089  0.70169408    -0.87300
O2024       O  0.82543778  0.34854199  0.67157701    -0.80200
C2025       C  0.88484339  0.40249855  0.74247854     0.93700
C2026       C  0.98198348  0.37374378  0.76573554     0.93500
Mg2027     Mg  0.85031927  0.30352860  0.63421240     1.58000
O2028       O  0.84468621  0.30769767  0.58777275    -0.80100
O2029       O  0.84825941  0.29290943  0.68108337    -0.74300
O2030       O  0.90464850  0.39340452  0.74848791    -0.80200
O2031       O  0.52841302  0.36359128  0.69031472    -0.81900
O2032       O  0.93275228  0.28401983  0.58107816    -0.80200
C2033       C  0.85995948  0.30961498  0.70309916     0.88000
O2034       O  0.88917782  0.29597583  0.62793625    -0.87300
O2035       O  0.88392361  0.35455301  0.64041980    -0.87400
O2036       O  0.91432383  0.36674314  0.60371246    -0.74500
Mg2037     Mg  0.91613123  0.35449066  0.73375454     1.58000
O2038       O  0.87135937  0.39710283  0.71855834    -0.81900
H2039       H  0.93848636  0.28242989  0.70904626    -0.05600
O2040       O  0.95865891  0.34100472  0.62690265    -0.87100
H2041       H  0.98608953  0.38192707  0.60645672    -0.05400
H2042       H  0.86206578  0.24878622  0.63458747    -0.05600
C2043       C  0.97895004  0.36982880  0.62641556     0.88000
C2044       C  0.93898734  0.30510201  0.70758580     0.88500
C2045       C  0.88535418  0.26984572  0.63563036     0.88600
H2046       H  0.89892201  0.39562741  0.61947177    -0.05600
O2047       O  0.93112564  0.41132828  0.68239585    -0.74600
Mg2048     Mg  0.92187243  0.32387475  0.59550584     1.58000
H2049       H  0.97700178  0.42994815  0.69394912    -0.05600
C2050       C  0.53302491  0.34627918  0.67328262     0.93600
O2051       O  0.97004202  0.28524724  0.60914180    -0.81800
C2052       C  0.95501626  0.27803101  0.58590021     0.93600
O2053       O  0.95501706  0.37159528  0.76739729    -0.81800
Mg2054     Mg  0.87822696  0.37582491  0.67811644     1.58200
O2055       O  0.51200448  0.32698885  0.65626806    -0.80100
O2056       O  0.80804329  0.30979423  0.63937053    -0.81800
C2057       C  0.83309197  0.39976508  0.85812927     0.03200
C2058       C  0.83114576  0.42796570  0.86074866     0.03200
C2059       C  0.84573953  0.45246055  0.84064987    -0.17300
C2060       C  0.86241829  0.44970012  0.81784822     0.03200
C2061       C  0.86428739  0.42130696  0.81523494     0.03200
C2062       C  0.85010254  0.39715228  0.83568853    -0.17300
H2063       H  0.85197037  0.37568290  0.83390494     0.05200
H2064       H  0.84571090  0.47472149  0.84389762     0.05200
C2065       C  0.52809388  0.27648388  0.48183901     0.03200
C2066       C  0.51739437  0.24334340  0.47745409     0.03200
C2067       C  0.49857915  0.22068983  0.49759613    -0.17300
C2068       C  0.99515235  0.23260595  0.52553661     0.03200
C2069       C  0.00387205  0.26524705  0.52928901     0.03200
C2070       C  0.51961112  0.28562782  0.50694055    -0.17300
H2071       H  0.52725370  0.31074683  0.51051083     0.05200
H2072       H  0.49175950  0.19572101  0.49436638     0.05200
C2073       C  0.76291029  0.27224539  0.47373206     0.03200
C2074       C  0.73349354  0.24378477  0.47636187     0.03200
C2075       C  0.72588368  0.22782266  0.50234612    -0.17300
C2076       C  0.74754920  0.23888416  0.52490918     0.03200
C2077       C  0.77808907  0.26597892  0.52106481     0.03200
C2078       C  0.78514149  0.28240175  0.49550551    -0.17300
H2079       H  0.80766571  0.30427772  0.49287252     0.05200
H2080       H  0.70335985  0.20602469  0.50500023     0.05200
C2081       C  0.73053535  0.50356239  0.47197358     0.03200
C2082       C  0.76088549  0.50665023  0.47069688     0.03200
C2083       C  0.78492070  0.01990139  0.49206972    -0.17300
C2084       C  0.77689900  0.03014032  0.51663403     0.03200
C2085       C  0.74589147  0.02484322  0.51925386     0.03200
C2086       C  0.72393763  0.00982613  0.49750664    -0.17300
H2087       H  0.70054232  0.00669016  0.49971226     0.05200
H2088       H  0.80882255  0.02439886  0.48974790     0.05200
O2089       O  0.95254653  0.00396291  0.98403582    -0.87400
C2090       C  0.51918006  0.05178127  0.04286993     0.88600
Mg2091     Mg  0.92126857  0.45191062  0.98220312     1.58100
O2092       O  0.55138218  0.04560213  0.97866091    -0.87200
O2093       O  0.48814787  0.04114808  0.95465799    -0.74500
C2094       C  0.51533960  0.39314402  0.00290025     0.93700
O2095       O  0.94877328  0.98675078  0.05033065    -0.74300
O2096       O  0.98702879  0.38791944  0.01657500    -0.81800
Mg2097     Mg  0.95638740  0.02885866  0.02304185     1.58000
C2098       C  0.61803484  0.01489810  0.98106996     0.93600
O2099       O  0.96006411  0.07200854  0.00126034    -0.80100
H2100       H  0.55794028  0.05469487  0.93768394    -0.05400
C2101       C  0.53474864  0.47534483  0.03830809     0.88500
O2102       O  0.95414452  0.44416209  0.95349266    -0.74600
O2103       O  0.50630193  0.04889920  0.01993450    -0.87300
O2104       O  0.61506049  0.03724806  0.99246652    -0.80200
C2105       C  0.60245355  0.11911879  0.01224532     0.93700
C2106       C  0.47924745  0.09894922  0.99230426     0.93500
Mg2107     Mg  0.54091132  0.46558343  0.97529540     1.58000
O2108       O  0.53702583  0.41989354  0.99364685    -0.80100
O2109       O  0.54843583  0.50906992  0.94989774    -0.74300
O2110       O  0.57604831  0.11561104  0.00381311    -0.80200
O2111       O  0.90394782  0.00910398  0.02454391    -0.81900
O2112       O  0.92162627  0.37970565  0.99628242    -0.80200
C2113       C  0.55339004  0.03785537  0.95446331     0.88000
O2114       O  0.99023709  0.44380344  0.98029000    -0.87300
O2115       O  0.54336867  0.48835400  0.01525255    -0.87400
O2116       O  0.00743616  0.45363864  0.04620630    -0.74500
Mg2117     Mg  0.53024148  0.07511338  0.98232325     1.58000
O2118       O  0.60679012  0.09547191  0.01638707    -0.81900
H2119       H  0.94660544  0.00547360  0.94275372    -0.05600
O2120       O  0.94538521  0.44982615  0.01985836    -0.87100
H2121       H  0.93844587  0.44235262  0.06100917    -0.05400
H2122       H  0.98806319  0.43547512  0.93912320    -0.05600
C2123       C  0.94320152  0.45852851  0.04363291     0.88000
C2124       C  0.96197805  0.01607417  0.96071517     0.88500
C2125       C  0.97781248  0.44048926  0.95705060     0.88600
H2126       H  0.55059147  0.48531228  0.05606269    -0.05600
O2127       O  0.54313272  0.04842013  0.04549031    -0.74600
Mg2128     Mg  0.96578101  0.41963565  0.01830855     1.58000
H2129       H  0.50914038  0.05616269  0.06129930    -0.05600
C2130       C  0.87975821  0.98282447  0.01739308     0.93600
O2131       O  0.89043100  0.39869613  0.98224487    -0.81800
C2132       C  0.89547082  0.37563754  0.98688825     0.93600
O2133       O  0.50705827  0.10547064  0.98581350    -0.81800
Mg2134     Mg  0.57571042  0.04181579  0.01538467     1.58200
O2135       O  0.88161955  0.45702718  0.00409958    -0.80100
O2136       O  0.59340834  0.48678661  0.97551170    -0.81800
O2137       O  0.87205550  0.15056539  0.31502345    -0.87400
C2138       C  0.80334060  0.11044109  0.37364102     0.88600
Mg2139     Mg  0.91004108  0.19846446  0.32166267     1.58100
O2140       O  0.78416806  0.13595524  0.31163156    -0.87200
O2141       O  0.83478739  0.12188139  0.28474023    -0.74500
C2142       C  0.84787612  0.28683620  0.35262879     0.93700
O2143       O  0.87942057  0.16129992  0.38204733    -0.74300
O2144       O  0.87307197  0.28590970  0.35531940    -0.81800
Mg2145     Mg  0.86275251  0.11961458  0.35018655     1.58000
C2146       C  0.73232271  0.18386397  0.32128556     0.93600
O2147       O  0.84754723  0.07438545  0.32341038    -0.80100
H2148       H  0.77575418  0.13256556  0.27033441    -0.05400
C2149       C  0.80611649  0.19561569  0.37844909     0.88500
O2150       O  0.88583454  0.21773579  0.29201265    -0.74600
O2151       O  0.81631979  0.11282894  0.35090120    -0.87300
O2152       O  0.73169082  0.15707868  0.31992989    -0.80200
C2153       C  0.72096670  0.06299138  0.33807276     0.93700
C2154       C  0.82121521  0.05013967  0.31644260     0.93500
Mg2155     Mg  0.80681649  0.21796297  0.31943020     1.58000
O2156       O  0.82146646  0.26193483  0.34731352    -0.80100
O2157       O  0.79027587  0.17680506  0.28696195    -0.74300
O2158       O  0.74701613  0.06364469  0.33700950    -0.80200
O2159       O  0.91201443  0.12772478  0.34721041    -0.81900
O2160       O  0.92261798  0.27441873  0.33195466    -0.80200
C2161       C  0.78301834  0.14754169  0.28889073     0.88000
O2162       O  0.85313086  0.22469159  0.31819857    -0.87300
O2163       O  0.79741318  0.18648757  0.35414946    -0.87400
O2164       O  0.83489060  0.21533293  0.38423966    -0.74500
Mg2165     Mg  0.79079461  0.09508737  0.31232835     1.58000
O2166       O  0.71915327  0.08840744  0.33790059    -0.81900
H2167       H  0.88085805  0.15032907  0.27417262    -0.05600
O2168       O  0.88589025  0.20211608  0.35712333    -0.87100
H2169       H  0.89446019  0.20575176  0.39838787    -0.05400
H2170       H  0.85856584  0.23550901  0.27739312    -0.05600
C2171       C  0.88702430  0.19063339  0.37991680     0.88000
C2172       C  0.86356615  0.14123980  0.29073235     0.88500
C2173       C  0.86551772  0.22657677  0.29524040     0.88600
H2174       H  0.78901954  0.18619389  0.39515732    -0.05600
O2175       O  0.78265815  0.11886433  0.37652322    -0.74600
Mg2176     Mg  0.87890166  0.24269710  0.35653461     1.58000
H2177       H  0.80992377  0.10125256  0.39154797    -0.05600
C2178       C  0.93769566  0.15435090  0.34836454     0.93600
O2179       O  0.94998387  0.24917874  0.32884289    -0.81800
C2180       C  0.94834158  0.27469100  0.32907363     0.93600
O2181       O  0.79642475  0.05174861  0.31313916    -0.81800
Mg2182     Mg  0.75919099  0.13887227  0.34668078     1.58200
O2183       O  0.93839808  0.18120750  0.34831070    -0.80100
O2184       O  0.75797213  0.21037083  0.32296850    -0.81800
O2185       O  0.63196415  0.35332075  0.64543374    -0.87400
C2186       C  0.69502087  0.39131679  0.71005721     0.88600
Mg2187     Mg  0.59337032  0.30510837  0.64604777     1.58100
O2188       O  0.72217184  0.37392204  0.64799797    -0.87200
O2189       O  0.67117730  0.38775954  0.61974947    -0.74500
C2190       C  0.65936065  0.22129071  0.67541452     0.93700
O2191       O  0.61860180  0.33694806  0.71272311    -0.74300
O2192       O  0.63307084  0.21966741  0.67972089    -0.81800
Mg2193     Mg  0.63699940  0.38034642  0.68357458     1.58000
C2194       C  0.77338603  0.32655670  0.65645268     0.93600
O2195       O  0.65180809  0.42575336  0.65955742    -0.80100
H2196       H  0.73248923  0.38191495  0.60728159    -0.05400
C2197       C  0.69459837  0.30737767  0.70980631     0.88500
O2198       O  0.61864796  0.28654140  0.61817121    -0.74600
O2199       O  0.68362404  0.38850723  0.68643764    -0.87300
O2200       O  0.77349484  0.35145597  0.66524314    -0.80200
C2201       C  0.78084923  0.44191926  0.67835696     0.93700
C2202       C  0.67764241  0.45216643  0.65962195     0.93500
Mg2203     Mg  0.69838428  0.29226034  0.64835158     1.58000
O2204       O  0.68488457  0.24754033  0.67216102    -0.80100
O2205       O  0.71507614  0.33562024  0.61937807    -0.74300
O2206       O  0.75449826  0.44076748  0.67901708    -0.80200
O2207       O  0.58808018  0.37244820  0.68013448    -0.81900
O2208       O  0.57801267  0.22885524  0.66038149    -0.80200
C2209       C  0.72404003  0.36483957  0.62430607     0.88000
O2210       O  0.65098925  0.28252267  0.64690286    -0.87300
O2211       O  0.70460265  0.31931473  0.68660673    -0.87400
O2212       O  0.66573683  0.28675366  0.71340817    -0.74500
Mg2213     Mg  0.71262314  0.41244410  0.65112236     1.58000
O2214       O  0.78329462  0.41713987  0.68133980    -0.81900
H2215       H  0.62681633  0.35866710  0.60451352    -0.05600
O2216       O  0.61306179  0.29866952  0.68488003    -0.87100
H2217       H  0.60066881  0.29070045  0.72518246    -0.05400
H2218       H  0.64729014  0.26936907  0.60670414    -0.05600
C2219       C  0.60998448  0.30775186  0.70817330     0.88000
C2220       C  0.64239025  0.36620618  0.62256292     0.88500
C2221       C  0.63928288  0.27875167  0.62333919     0.88600
H2222       H  0.71059520  0.31532430  0.72756615    -0.05600
O2223       O  0.71647161  0.38443182  0.71460071    -0.74600
Mg2224     Mg  0.62326709  0.26048750  0.68372004     1.58000
H2225       H  0.68642720  0.39951277  0.72715398    -0.05600
C2226       C  0.56292805  0.34698450  0.67343453     0.93600
O2227       O  0.55213924  0.25468047  0.64988727    -0.81800
C2228       C  0.55264903  0.22921317  0.65572285     0.93600
O2229       O  0.70402361  0.45367659  0.65687675    -0.81800
Mg2230     Mg  0.74261332  0.36712959  0.68590869     1.58200
O2231       O  0.56252153  0.32160856  0.66558159    -0.80100
O2232       O  0.74817592  0.30101338  0.64986740    -0.81800
C2233       C  0.88090041  0.41523997  0.79198977    -0.15500
C2234       C  0.87522134  0.41752972  0.76463099    -0.30700
H2235       H  0.89424306  0.40355368  0.79763828     0.13500
H2236       H  0.85960382  0.42654700  0.75878190     0.14100
C2237       C  0.83314752  0.29271745  0.54042820    -0.15500
C2238       C  0.80162162  0.27909418  0.54423072    -0.30700
H2239       H  0.84264323  0.29379036  0.51970017     0.13500
H2240       H  0.79248918  0.27613841  0.56537047     0.14100
C2241       C  0.99448401  0.27667398  0.55463419    -0.15500
C2242       C  0.96419842  0.26333077  0.56317349    -0.30700
H2243       H  0.50961726  0.29604905  0.56277404     0.13500
H2244       H  0.94560233  0.24381568  0.55104944     0.14100
C2245       C  0.87918511  0.47709298  0.79796358    -0.15500
C2246       C  0.86821644  0.49692045  0.79114005    -0.30700
H2247       H  0.89923101  0.47912802  0.78651620     0.13500
H2248       H  0.84636270  0.49321962  0.80023347     0.14100
C2249       C  0.80019635  0.03902442  0.56455629    -0.15500
C2250       C  0.80239504  0.04842843  0.53773653    -0.30700
H2251       H  0.77898698  0.01748853  0.57126656     0.13500
H2252       H  0.82491582  0.06755642  0.53012342     0.14100
C2253       C  0.98183004  0.20919706  0.54892674    -0.15500
C2254       C  0.96258102  0.17724548  0.54537006    -0.30700
H2255       H  0.98890728  0.21861137  0.57007284     0.13500
H2256       H  0.95268071  0.16725177  0.52492981     0.14100
C2257       C  0.53501839  0.39159931  0.78606375    -0.15500
C2258       C  0.50341655  0.37728287  0.78963338    -0.30700
H2259       H  0.54444937  0.39656825  0.76495637     0.13500
H2260       H  0.99236002  0.38011874  0.81138758     0.14100
C2261       C  0.53136215  0.11274937  0.79338107    -0.15500
C2262       C  0.53705849  0.12382749  0.76684683    -0.30700
H2263       H  0.50748097  0.09466077  0.79910307     0.13500
H2264       H  0.55999977  0.14418467  0.76167215     0.14100
C2265       C  0.59945019  0.45024620  0.78089859    -0.15500
C2266       C  0.58479076  0.46512968  0.77000458    -0.30700
H2267       H  0.62282168  0.45671479  0.77337245     0.13500
H2268       H  0.56314780  0.46156093  0.77951858     0.14100
C2269       C  0.62581668  0.12906215  0.78896381    -0.15500
C2270       C  0.59524276  0.11771135  0.79524299    -0.30700
H2271       H  0.64417846  0.15051159  0.79923498     0.13500
H2272       H  0.57727254  0.09845139  0.78244167     0.14100
C2273       C  0.73527640  0.03414629  0.54452019    -0.15500
C2274       C  0.72157116  0.05225696  0.54322408    -0.30700
H2275       H  0.73785577  0.02521932  0.56463222     0.13500
H2276       H  0.72071633  0.06338411  0.52368849     0.14100
C2277       C  0.75276084  0.20893853  0.56527654    -0.15500
C2278       C  0.73678233  0.22102351  0.55183569    -0.30700
H2279       H  0.77519587  0.21331197  0.55694984     0.13500
H2280       H  0.71273039  0.21329633  0.55825510     0.14100
C2281       C  0.55150596  0.34079918  0.87880547    -0.15500
C2282       C  0.56498818  0.37285405  0.88118726    -0.30700
H2283       H  0.54745721  0.32978741  0.85817389     0.13500
H2284       H  0.57138309  0.38421346  0.90171064     0.14100
C2285       C  0.56579165  0.19783415  0.89409954    -0.15500
C2286       C  0.55239362  0.16689575  0.88580972    -0.30700
H2287       H  0.58587353  0.21637015  0.88276269     0.13500
H2288       H  0.53035519  0.14901801  0.89527952     0.14100
C2289       C  0.78950781  0.35772550  0.88768123    -0.15500
C2290       C  0.82003356  0.37355704  0.87942399    -0.30700
H2291       H  0.77279288  0.36369828  0.87838401     0.13500
H2292       H  0.83590547  0.36556200  0.88708507     0.14100
C2293       C  0.64732101  0.19546736  0.88512533    -0.15500
C2294       C  0.61624216  0.17435104  0.88720377    -0.30700
H2295       H  0.65775362  0.20497408  0.86482438     0.13500
H2296       H  0.60556999  0.16709631  0.90777337     0.14100
C2297       C  0.62553972  0.43536465  0.87770698    -0.15500
C2298       C  0.64101063  0.42093858  0.88796460    -0.30700
H2299       H  0.63192434  0.45927082  0.88506069     0.13500
H2300       H  0.63668929  0.39831699  0.87897773     0.14100
C2301       C  0.81805360  0.43427144  0.88629705    -0.15500
C2302       C  0.80015020  0.44816967  0.88540655    -0.30700
H2303       H  0.82314598  0.42713879  0.90636882     0.13500
H2304       H  0.79247396  0.45276357  0.86541859     0.14100
C2305       C  0.92266689  0.28365320  0.12829240    -0.15500
C2306       C  0.91842063  0.28543285  0.10058419    -0.33700
H2307       H  0.93533501  0.27169539  0.13528209     0.13500
H2308       H  0.90943984  0.30071231  0.09322827     0.14100
C2309       C  0.86374691  0.28912111  0.12840371    -0.15500
C2310       C  0.85244168  0.30496109  0.11361949    -0.30700
H2311       H  0.85678758  0.26455313  0.12271969     0.13500
H2312       H  0.86210514  0.33050698  0.11740520     0.14100
C2313       C  0.77101156  0.49547761  0.44566058    -0.15500
C2314       C  0.78324236  0.47586458  0.44732743    -0.30700
H2315       H  0.76736339  0.99954685  0.42438718     0.13500
H2316       H  0.78469051  0.46636317  0.46756943     0.14100
C2317       C  0.77137561  0.29278817  0.44873378    -0.15500
C2318       C  0.75878071  0.31163169  0.44365156    -0.30700
H2319       H  0.79151361  0.29577663  0.43681087     0.13500
H2320       H  0.74024175  0.31020331  0.45704168     0.14100
C2321       C  0.87631293  0.35343563  0.22179272    -0.15500
C2322       C  0.90523470  0.36256250  0.21147284    -0.30700
H2323       H  0.85641354  0.33056181  0.21520832     0.13500
H2324       H  0.92563835  0.38351323  0.22041423     0.14100
C2325       C  0.54291627  0.29760732  0.43292523    -0.15500
C2326       C  0.54711658  0.30228485  0.46086205    -0.30700
H2327       H  0.52486874  0.27450224  0.42495137     0.13500
H2328       H  0.56274365  0.32644142  0.46868381     0.14100
C2329       C  0.67468043  0.46892159  0.45519270    -0.15500
C2330       C  0.70607727  0.48652996  0.44986035    -0.30700
H2331       H  0.66614601  0.46421144  0.47657953     0.13500
H2332       H  0.71405110  0.48848493  0.42840761     0.14100
C2333       C  0.99378906  0.36889974  0.20833560    -0.15500
C2334       C  0.96224463  0.35484656  0.21247769    -0.30700
H2335       H  0.50652058  0.37560179  0.18631898     0.13500
H2336       H  0.95377492  0.35456714  0.23352654     0.14100
C2337       C  0.91952571  0.13653133  0.13317382    -0.15500
C2338       C  0.93125599  0.13492249  0.10843346    -0.30700
H2339       H  0.91871065  0.15793980  0.13902800     0.13500
H2340       H  0.93314091  0.11386319  0.10347428     0.14100
C2341       C  0.86950868  0.06527864  0.12644033    -0.15500
C2342       C  0.85194640  0.07733706  0.11575103    -0.30700
H2343       H  0.86570839  0.04244841  0.11841916     0.13500
H2344       H  0.85341310  0.09856874  0.12524345     0.14100
C2345       C  0.90456286  0.01964053  0.21937828    -0.15500
C2346       C  0.90199502  0.04627174  0.22039399    -0.30700
H2347       H  0.91356310  0.01422693  0.20066823     0.13500
H2348       H  0.89431907  0.05230701  0.23960767     0.14100
C2349       C  0.71178928  0.13580823  0.10595789    -0.15500
C2350       C  0.71845452  0.13821019  0.13347877    -0.30700
H2351       H  0.69201689  0.11357664  0.09797957     0.13500
H2352       H  0.73538590  0.16152600  0.14221542     0.14100
C2353       C  0.70314326  0.06984848  0.12724406    -0.15500
C2354       C  0.68695493  0.04362056  0.11110462    -0.30700
H2355       H  0.72794951  0.08626027  0.12287688     0.13500
H2356       H  0.66154188  0.02883579  0.11359378     0.14100
C2357       C  0.62717520  0.03785900  0.20652564    -0.15500
C2358       C  0.62709109  0.04123135  0.23452698    -0.30700
H2359       H  0.61351237  0.01392451  0.19755806     0.13500
H2360       H  0.64341714  0.06416076  0.24401541     0.14100
C2361       C  0.55488726  0.24146192  0.44398155    -0.15500
C2362       C  0.52515561  0.23067953  0.45245641    -0.30700
H2363       H  0.57475108  0.25916429  0.45633030     0.13500
H2364       H  0.50570286  0.21058537  0.44154005     0.14100
C2365       C  0.68051870  0.21206136  0.45295507    -0.15500
C2366       C  0.71211979  0.23041527  0.45141413    -0.30700
H2367       H  0.66904589  0.20651041  0.47320489     0.13500
H2368       H  0.72269276  0.23762198  0.43082048     0.14100
C2369       C  0.95343458  0.11322757  0.22309623    -0.15500
C2370       C  0.98486759  0.12977875  0.21912890    -0.30700
H2371       H  0.94417885  0.10521685  0.24399611     0.13500
H2372       H  0.49532651  0.13101802  0.19417592     0.14100
C2373       C  0.61818343  0.09847468  0.22077440    -0.15500
C2374       C  0.64882074  0.10974676  0.21493202    -0.30700
H2375       H  0.59968008  0.08095094  0.20716606     0.13500
H2376       H  0.66682585  0.12949903  0.22734253     0.14100
O2377       O  0.62712348  0.65549117  0.34876628    -0.87400
C2378       C  0.62193407  0.73649542  0.36048726     0.88600
Mg2379     Mg  0.62765724  0.63733270  0.30794401     1.58100
O2380       O  0.55171807  0.66362884  0.37276107    -0.87200
O2381       O  0.59935298  0.63872896  0.38703531    -0.74500
C2382       C  0.51191294  0.63725960  0.23572297     0.93700
O2383       O  0.65592014  0.71887990  0.30994722    -0.74300
O2384       O  0.53998228  0.64321121  0.23177846    -0.81800
Mg2385     Mg  0.66001389  0.70635006  0.35551891     1.58000
C2386       C  0.96571008  0.64964783  0.34355380     0.93600
O2387       O  0.67163170  0.70119232  0.40142265    -0.80100
H2388       H  0.52790207  0.62214651  0.39343417    -0.05400
C2389       C  0.55788390  0.70311626  0.29542660     0.88500
O2390       O  0.57463961  0.60104872  0.30888780    -0.74600
O2391       O  0.62113104  0.71150642  0.36788313    -0.87300
O2392       O  0.98880866  0.66898223  0.35892921    -0.80200
C2393       C  0.56100775  0.72489709  0.41950719     0.93700
C2394       C  0.66136471  0.70090856  0.42597609     0.93500
Mg2395     Mg  0.51202475  0.63170062  0.30656735     1.58000
O2396       O  0.50096728  0.63631269  0.26016754    -0.80100
O2397       O  0.51637915  0.61925153  0.35222603    -0.74300
O2398       O  0.58334669  0.71863373  0.42043815    -0.80200
O2399       O  0.70090903  0.70076654  0.34238333    -0.81900
O2400       O  0.59011358  0.62036038  0.24104592    -0.80200
C2401       C  0.53174299  0.63475298  0.37380638     0.88000
O2402       O  0.55103133  0.62662805  0.29410194    -0.87300
O2403       O  0.54466752  0.68257209  0.31374869    -0.87400
O2404       O  0.57336324  0.69954149  0.27591763    -0.74500
Mg2405     Mg  0.59171761  0.67999218  0.40066868     1.58000
O2406       O  0.54248998  0.71769147  0.39853175    -0.81900
H2407       H  0.61577156  0.61332760  0.36626500    -0.05600
O2408       O  0.62061954  0.67427985  0.28975696    -0.87100
H2409       H  0.64468259  0.71541091  0.26864996    -0.05400
H2410       H  0.52726109  0.57976706  0.30307417    -0.05600
C2411       C  0.64072610  0.70308398  0.28844130     0.88000
C2412       C  0.61461190  0.63516334  0.36734563     0.88500
C2413       C  0.54994402  0.60155484  0.30163336     0.88600
H2414       H  0.55713915  0.72517566  0.29658539    -0.05600
O2415       O  0.59699842  0.73686059  0.35380325    -0.74600
Mg2416     Mg  0.58114296  0.65851763  0.26162273     1.58000
H2417       H  0.64452134  0.75836532  0.35881446    -0.05600
C2418       C  0.70412867  0.68462056  0.32296488     0.93600
O2419       O  0.62908133  0.61973128  0.26496765    -0.81800
C2420       C  0.61206383  0.61357871  0.24308850     0.93600
O2421       O  0.63364554  0.69600490  0.43015715    -0.81800
Mg2422     Mg  0.54392650  0.70027292  0.35499565     1.58200
O2423       O  0.68144581  0.66540805  0.30718987    -0.80100
O2424       O  0.96850669  0.63334483  0.32394663    -0.81800
C2425       C  0.66079457  0.59623037  0.19137989     0.03200
C2426       C  0.65001518  0.56293982  0.18793742     0.03200
C2427       C  0.66386370  0.55365152  0.16683729    -0.17300
C2428       C  0.68799801  0.57643205  0.14946835     0.03200
C2429       C  0.69810289  0.60939285  0.15301598     0.03200
C2430       C  0.68494026  0.61877239  0.17430538    -0.17300
H2431       H  0.69283467  0.64412661  0.17697200     0.05200
H2432       H  0.65669324  0.52844672  0.16480975     0.05200
C2433       C  0.89916704  0.56662787  0.19600915     0.03200
C2434       C  0.92950197  0.59428990  0.19414247     0.03200
C2435       C  0.93575580  0.61534788  0.17147231    -0.17300
C2436       C  0.91217482  0.61026345  0.15173482     0.03200
C2437       C  0.88121488  0.58391120  0.15492861     0.03200
C2438       C  0.87525014  0.56250417  0.17709680    -0.17300
H2439       H  0.85172845  0.54183046  0.17932005     0.05200
H2440       H  0.95857180  0.63702819  0.16986139     0.05200
O2441       O  0.55400228  0.86713952  0.30696803    -0.87400
C2442       C  0.54315181  0.94600102  0.30363606     0.88600
Mg2443     Mg  0.55289797  0.84194798  0.34493280     1.58100
O2444       O  0.61968798  0.95760701  0.29361291    -0.87200
O2445       O  0.58051804  0.88611917  0.26850529    -0.74500
C2446       C  0.65351457  0.95371689  0.43109052     0.93700
O2447       O  0.51484824  0.88612639  0.34895161    -0.74300
O2448       O  0.62746054  0.92732567  0.43368663    -0.81800
Mg2449     Mg  0.51566632  0.87750801  0.30176987     1.58000
C2450       C  0.69100839  0.53225652  0.34042049     0.93600
O2451       O  0.50812538  0.86813792  0.25461614    -0.80100
H2452       H  0.64888891  0.94787525  0.27225435    -0.05400
C2453       C  0.60202577  0.97204161  0.37638151     0.88500
O2454       O  0.60638184  0.86509273  0.34786621    -0.74600
O2455       O  0.54975475  0.92635317  0.29408548    -0.87300
O2456       O  0.66801651  0.52822642  0.32530999    -0.80200
C2457       C  0.61241930  0.01424807  0.25444304     0.93700
C2458       C  0.51703014  0.88366701  0.23168291     0.93500
Mg2459     Mg  0.65451773  0.95891846  0.36138515     1.58000
O2460       O  0.66182877  0.96897828  0.40806718    -0.80100
O2461       O  0.65556971  0.95018604  0.31431861    -0.74300
O2462       O  0.59375755  0.98541223  0.24620101    -0.80200
O2463       O  0.97953425  0.82334961  0.30929627    -0.81900
O2464       O  0.57882324  0.85257833  0.41701544    -0.80200
C2465       C  0.64181048  0.95219448  0.29244770     0.88000
O2466       O  0.62057028  0.91030924  0.36898155    -0.87300
O2467       O  0.61598851  0.96897369  0.35629844    -0.87400
O2468       O  0.58926405  0.95022064  0.39466506    -0.74500
Mg2469     Mg  0.58376595  0.93502199  0.26153955     1.58000
O2470       O  0.62096536  0.52127323  0.27992878    -0.81900
H2471       H  0.56939793  0.84264710  0.28460204    -0.05600
O2472       O  0.55081213  0.87893594  0.36983776    -0.87100
H2473       H  0.52143938  0.88855630  0.39103753    -0.05400
H2474       H  0.65150470  0.89611531  0.35986887    -0.05600
C2475       C  0.52861535  0.88424916  0.37088777     0.88000
C2476       C  0.56778031  0.86414631  0.28669497     0.88500
C2477       C  0.62721778  0.89067204  0.35946926     0.88600
H2478       H  0.60017500  0.99343393  0.37815551    -0.05600
O2479       O  0.56396183  0.97140182  0.31548437    -0.74600
Mg2480     Mg  0.58694560  0.90188817  0.40171501     1.58000
H2481       H  0.51891237  0.94070662  0.30306450    -0.05600
C2482       C  0.97845676  0.80239218  0.32609602     0.93600
O2483       O  0.54866563  0.81576977  0.38513028    -0.81800
C2484       C  0.55955846  0.82353084  0.40989688     0.93600
O2485       O  0.54333122  0.90991023  0.22940735    -0.81800
Mg2486     Mg  0.61742046  0.99443940  0.31887012     1.58200
O2487       O  0.00143704  0.80728221  0.34170934    -0.80100
O2488       O  0.68996693  0.51023753  0.35570279    -0.81800
O2489       O  0.81311515  0.86037899  0.34321110    -0.87400
C2490       C  0.85584808  0.93545692  0.39808151     0.88600
Mg2491     Mg  0.83492160  0.85531856  0.30605822     1.58100
O2492       O  0.79603856  0.93200123  0.35447281    -0.87200
O2493       O  0.76929275  0.85714611  0.35734191    -0.74500
C2494       C  0.89246484  0.99601656  0.24264722     0.93700
O2495       O  0.88669630  0.90158216  0.35714419    -0.74300
O2496       O  0.89743461  0.97240072  0.24297001    -0.81800
Mg2497     Mg  0.84021826  0.87047913  0.38108862     1.58000
C2498       C  0.81455859  0.51683218  0.31520542     0.93600
O2499       O  0.79817854  0.83819702  0.40842647    -0.80100
H2500       H  0.75165590  0.91053956  0.33985979    -0.05400
C2501       C  0.88704657  0.98843599  0.32602917     0.88500
O2502       O  0.80836220  0.87321590  0.27864202    -0.74600
O2503       O  0.83374944  0.91068738  0.38792140    -0.87300
O2504       O  0.80386534  0.49891637  0.33653405    -0.80200
C2505       C  0.79730495  0.96569397  0.42172116     0.93700
C2506       C  0.77895559  0.83979780  0.42522576     0.93500
Mg2507     Mg  0.83234648  0.96646206  0.28728243     1.58000
O2508       O  0.87078450  0.49821663  0.26116540    -0.80100
O2509       O  0.78498480  0.93482094  0.31030099    -0.74300
O2510       O  0.79362086  0.93749978  0.42204537    -0.80200
O2511       O  0.84402492  0.82639115  0.37463960    -0.81900
O2512       O  0.88001701  0.89734667  0.24634052    -0.80200
C2513       C  0.77652346  0.92525081  0.33531363     0.88000
O2514       O  0.83775200  0.92550104  0.27965926    -0.87300
O2515       O  0.85794106  0.97524228  0.32580875    -0.87400
O2516       O  0.90138104  0.97804268  0.31096384    -0.74500
Mg2517     Mg  0.78490273  0.89888608  0.38860989     1.58000
O2518       O  0.80844722  0.98403546  0.40055570    -0.81900
H2519       H  0.77074362  0.82547693  0.33011817    -0.05600
O2520       O  0.87485062  0.90293305  0.31293992    -0.87100
H2521       H  0.91946112  0.92453099  0.32692336    -0.05400
H2522       H  0.79853012  0.90301428  0.25622448    -0.05600
C2523       C  0.89466870  0.91006518  0.33187853     0.88000
C2524       C  0.78398157  0.84660373  0.34306506     0.88500
C2525       C  0.81454220  0.90088491  0.27058545     0.88600
H2526       H  0.90059003  0.00915285  0.33934997    -0.05600
O2527       O  0.86077220  0.96302534  0.39097433    -0.74600
Mg2528     Mg  0.88646786  0.93645215  0.27906110     1.58000
H2529       H  0.87169919  0.93364341  0.41286944    -0.05600
C2530       C  0.85237027  0.81704269  0.35327591     0.93600
O2531       O  0.85632255  0.84893473  0.26631988    -0.81800
C2532       C  0.87117495  0.86739932  0.24603966     0.93600
O2533       O  0.77298847  0.86267538  0.42418011    -0.81800
Mg2534     Mg  0.83392263  0.97975342  0.36224218     1.58200
O2535       O  0.85858233  0.83174921  0.33000449    -0.80100
O2536       O  0.82540439  0.50939927  0.29442110    -0.81800
C2537       C  0.94361751  0.84935718  0.18602915     0.03200
C2538       C  0.91464247  0.84953503  0.18740971     0.03200
C2539       C  0.89341059  0.83742848  0.16449530    -0.17300
C2540       C  0.90048934  0.82572666  0.14024430     0.03200
C2541       C  0.92907890  0.82536682  0.13908492     0.03200
C2542       C  0.95024322  0.83715179  0.16178723    -0.17300
H2543       H  0.97184850  0.83616936  0.16061493     0.05200
H2544       H  0.87203309  0.83888952  0.16479339     0.05200
O2545       O  0.69142880  0.97624934  0.98970024    -0.87400
C2546       C  0.76176107  0.51544654  0.93713313     0.88600
Mg2547     Mg  0.68827498  0.99993482  0.02667342     1.58100
O2548       O  0.76314030  0.96018049  0.98059229    -0.87200
O2549       O  0.68889452  0.93135281  0.97749253    -0.74500
C2550       C  0.82947510  0.55639756  0.08858453     0.93700
O2551       O  0.73016073  0.54776643  0.97819099    -0.74300
O2552       O  0.80585690  0.56082927  0.08982005    -0.81800
Mg2553     Mg  0.69831157  0.50083405  0.95366539     1.58000
C2554       C  0.84908287  0.98134434  0.01887307     0.93600
O2555       O  0.66908936  0.95920308  0.92313808    -0.80100
H2556       H  0.74278604  0.91498649  0.99456901    -0.05400
C2557       C  0.81700256  0.54667237  0.00742900     0.88500
O2558       O  0.70655492  0.97310159  0.05385293    -0.74600
O2559       O  0.73705803  0.49296720  0.94657479    -0.87300
O2560       O  0.83216612  0.97338329  0.99674961    -0.80200
C2561       C  0.79704562  0.96333966  0.91328018     0.93700
C2562       C  0.67014924  0.93769616  0.90829456     0.93500
Mg2563     Mg  0.79836170  0.99620454  0.04881530     1.58000
O2564       O  0.83018380  0.53647307  0.07151949    -0.80100
O2565       O  0.76714845  0.94875878  0.02441988    -0.74300
O2566       O  0.76744743  0.95337237  0.91373518    -0.80200
O2567       O  0.65574433  0.50611909  0.96165817    -0.81900
O2568       O  0.73049452  0.54008239  0.08888121    -0.80200
C2569       C  0.75718162  0.94027813  0.99941383     0.88000
O2570       O  0.75831501  0.00261045  0.05573563    -0.87300
O2571       O  0.80414911  0.51706995  0.00809520    -0.87400
O2572       O  0.80711696  0.56170409  0.02229770    -0.74500
Mg2573     Mg  0.72954613  0.94634359  0.94646994     1.58000
O2574       O  0.81526759  0.97843276  0.93363381    -0.81900
H2575       H  0.65750330  0.93363484  0.00362291    -0.05600
O2576       O  0.73343445  0.53514795  0.02172932    -0.87100
H2577       H  0.75444631  0.58070612  0.00863063    -0.05400
H2578       H  0.73433303  0.96158896  0.07703270    -0.05600
C2579       C  0.73980310  0.55556547  0.00332637     0.88000
C2580       C  0.67817458  0.94666898  0.99068695     0.88500
C2581       C  0.73331395  0.97875240  0.06308382     0.88600
H2582       H  0.83686411  0.56004814  0.99369306    -0.05600
O2583       O  0.78869626  0.51972546  0.94420011    -0.74600
Mg2584     Mg  0.76770381  0.54719925  0.05507841     1.58000
H2585       H  0.76044836  0.53231255  0.92300570    -0.05600
C2586       C  0.64772626  0.51556604  0.98328108     0.93600
O2587       O  0.68263841  0.51737936  0.06896580    -0.81800
C2588       C  0.70116229  0.53149661  0.08941612     0.93600
O2589       O  0.69208278  0.93091269  0.91139506    -0.81800
Mg2590     Mg  0.80619376  0.49204794  0.97132676     1.58200
O2591       O  0.66314322  0.52181202  0.00625992    -0.80100
O2592       O  0.84224439  0.99224102  0.04036320    -0.81800
O2593       O  0.78304414  0.80415231  0.99277686    -0.87400
C2594       C  0.74884777  0.72950768  0.93758840     0.88600
Mg2595     Mg  0.80948879  0.80535576  0.02999396     1.58100
O2596       O  0.69407674  0.73497206  0.98139965    -0.87200
O2597       O  0.74307204  0.80929973  0.97955708    -0.74500
C2598       C  0.72244484  0.66125312  0.08789740     0.93700
O2599       O  0.81289093  0.76094536  0.97798505    -0.74300
O2600       O  0.75079765  0.68456753  0.08932371    -0.81800
Mg2601     Mg  0.79916362  0.79436901  0.95428202     1.58000
C2602       C  0.62718787  0.64804686  0.01787509     0.93600
O2603       O  0.79013535  0.82796327  0.92536300    -0.80100
H2604       H  0.67225008  0.75779982  0.99578267    -0.05400
C2605       C  0.72413929  0.67391955  0.00774018     0.88500
O2606       O  0.76525108  0.78885532  0.05722445    -0.74600
O2607       O  0.75230757  0.75509888  0.94688973    -0.87300
O2608       O  0.63537066  0.66712852  0.99721475    -0.80200
C2609       C  0.66193269  0.70293026  0.91358347     0.93700
C2610       C  0.76824851  0.82684333  0.90983859     0.93500
Mg2611     Mg  0.69289847  0.69707619  0.04726602     1.58000
O2612       O  0.70222877  0.66168936  0.07139405    -0.80100
O2613       O  0.67913743  0.73128709  0.02515578    -0.74300
O2614       O  0.68606900  0.73104993  0.91371792    -0.80200
O2615       O  0.84677284  0.83783303  0.96318060    -0.81900
O2616       O  0.80468880  0.75978743  0.08963230    -0.80200
C2617       C  0.68138399  0.74196767  0.00034464     0.88000
O2618       O  0.73939641  0.73619115  0.05535100    -0.87300
O2619       O  0.70929321  0.68841243  0.00891554    -0.87400
O2620       O  0.74906903  0.68288274  0.02219100    -0.74500
Mg2621     Mg  0.71604947  0.76843720  0.94768275     1.58000
O2622       O  0.65429654  0.68444977  0.93462140    -0.81900
H2623       H  0.77672354  0.83961432  0.00705295    -0.05600
O2624       O  0.79799482  0.75711293  0.02175031    -0.87100
H2625       H  0.82024727  0.73474896  0.00734052    -0.05400
H2626       H  0.72493811  0.76079570  0.07878381    -0.05600
C2627       C  0.81081281  0.75033191  0.00279201     0.88000
C2628       C  0.76829449  0.81873829  0.99365323     0.88500
C2629       C  0.74249450  0.76165940  0.06461019     0.88600
H2630       H  0.71600743  0.65349164  0.99383427    -0.05600
O2631       O  0.72588663  0.70247187  0.94502134    -0.74600
Mg2632     Mg  0.77543783  0.72284850  0.05505850     1.58000
H2633       H  0.76617204  0.73011458  0.92327088    -0.05600
C2634       C  0.86447708  0.84438595  0.98456710     0.93600
O2635       O  0.83672997  0.80697415  0.06952359    -0.81800
C2636       C  0.82872490  0.78800606  0.09038368     0.93600
O2637       O  0.73952069  0.80508639  0.91281584    -0.81800
Mg2638     Mg  0.68212903  0.68665819  0.97281405     1.58200
O2639       O  0.85638842  0.82567427  0.00556898    -0.80100
O2640       O  0.64520398  0.65398812  0.03885419    -0.81800
O2641       O  0.98825632  0.78818716  0.98008731    -0.87400
C2642       C  0.56529457  0.77576718  0.97426148     0.88600
Mg2643     Mg  0.96798918  0.78999181  0.01958848     1.58100
O2644       O  0.99271177  0.71121870  0.95622877    -0.87200
O2645       O  0.97487930  0.76316888  0.93988763    -0.74500
C2646       C  0.95204164  0.66483782  0.08917340     0.93700
O2647       O  0.54524664  0.81291064  0.02105353    -0.74300
O2648       O  0.95270399  0.69124181  0.09358636    -0.81800
Mg2649     Mg  0.54072838  0.81993093  0.97367263     1.58000
C2650       C  0.97578985  0.62490391  0.98797926     0.93600
O2651       O  0.54230089  0.83214266  0.92647796    -0.80100
H2652       H  0.95410471  0.68997827  0.93188509    -0.05400
C2653       C  0.51724860  0.71190848  0.03889258     0.88500
O2654       O  0.92821526  0.73747920  0.01447527    -0.74600
O2655       O  0.54353216  0.77821009  0.96358522    -0.87300
O2656       O  0.48320597  0.64482426  0.97393283    -0.80200
C2657       C  0.55026639  0.70827367  0.91742635     0.93700
C2658       C  0.54356436  0.82076986  0.90263967     0.93500
Mg2659     Mg  0.95399867  0.66946990  0.01920036     1.58000
O2660       O  0.95747285  0.65711354  0.06521689    -0.80100
O2661       O  0.94621988  0.67609162  0.97259969    -0.74300
O2662       O  0.54868869  0.73368788  0.91398421    -0.80200
O2663       O  0.53583871  0.86343358  0.98306453    -0.81900
O2664       O  0.93937794  0.74891363  0.08339273    -0.80200
C2665       C  0.96418387  0.69226619  0.95256437     0.88000
O2666       O  0.94841490  0.70924724  0.03085456    -0.87300
O2667       O  0.50006698  0.70243178  0.01795289    -0.87400
O2668       O  0.51210447  0.72641773  0.05854932    -0.74500
Mg2669     Mg  0.51370414  0.74972909  0.92885518     1.58000
O2670       O  0.53922683  0.69073096  0.93892704    -0.81900
H2671       H  0.94970636  0.78070919  0.95902394    -0.05600
O2672       O  0.49805783  0.77987929  0.03775053    -0.87100
H2673       H  0.53676018  0.80019786  0.06200633    -0.05400
H2674       H  0.90369130  0.68878379  0.01728114    -0.05600
C2675       C  0.52684520  0.79777954  0.04123882     0.88000
C2676       C  0.97023551  0.77784233  0.95970282     0.88500
C2677       C  0.92578356  0.71075147  0.02104008     0.88600
H2678       H  0.53705691  0.70792274  0.04046646    -0.05600
O2679       O  0.56122231  0.74890027  0.98262698    -0.74600
Mg2680     Mg  0.97617560  0.73585294  0.06666289     1.58000
H2681       H  0.58804189  0.79715930  0.97736187    -0.05600
C2682       C  0.52062937  0.86715534  0.00278144     0.93600
O2683       O  0.94802290  0.79308352  0.06094712    -0.81800
C2684       C  0.93745439  0.77434257  0.08178698     0.93600
O2685       O  0.53712086  0.79184300  0.89945708    -0.81800
Mg2686     Mg  0.51977084  0.69713752  0.97927611     1.58200
O2687       O  0.00243501  0.84283950  0.02621459    -0.80100
O2688       O  0.96079277  0.62814394  0.00806696    -0.81800
O2689       O  0.63926913  0.52751729  0.66911540    -0.87400
C2690       C  0.68510111  0.58675593  0.73322570     0.88600
Mg2691     Mg  0.66145181  0.53010630  0.62976854     1.58100
O2692       O  0.62980731  0.59838281  0.69505453    -0.87200
O2693       O  0.59591608  0.52311214  0.68519921    -0.74500
C2694       C  0.72743219  0.68070332  0.58782390     0.93700
O2695       O  0.71165283  0.56117211  0.68426817    -0.74300
O2696       O  0.73126698  0.65655824  0.58427463    -0.81800
Mg2697     Mg  0.66399923  0.52636596  0.70566315     1.58000
C2698       C  0.65578275  0.69109926  0.67539291     0.93600
O2699       O  0.62398906  0.98943804  0.72737154    -0.80100
H2700       H  0.58581411  0.58315393  0.68144929    -0.05400
C2701       C  0.72188393  0.65785783  0.66880698     0.88500
O2702       O  0.63741906  0.55524547  0.60924272    -0.74600
O2703       O  0.66056138  0.56523867  0.72238252    -0.87300
O2704       O  0.64931792  0.67140388  0.69518379    -0.80200
C2705       C  0.63168262  0.61905533  0.76641280     0.93700
C2706       C  0.60080015  0.49123004  0.74928554     0.93500
Mg2707     Mg  0.66745654  0.64580506  0.63307476     1.58000
O2708       O  0.71139555  0.68229431  0.60811806    -0.80100
O2709       O  0.61984471  0.61157893  0.65387708    -0.74300
O2710       O  0.61964251  0.58930398  0.76080047    -0.80200
O2711       O  0.66954870  0.98340420  0.68229743    -0.81900
O2712       O  0.71070717  0.58187969  0.57553249    -0.80200
C2713       C  0.61082457  0.59729380  0.67726376     0.88000
O2714       O  0.67042228  0.60644177  0.61589730    -0.87300
O2715       O  0.69285130  0.64459912  0.66909445    -0.87400
O2716       O  0.73582071  0.65016241  0.65077723    -0.74500
Mg2717     Mg  0.61283308  0.55802694  0.72229926     1.58000
O2718       O  0.65038145  0.64095046  0.75008576    -0.81900
H2719       H  0.59706060  0.49671701  0.65254489    -0.05600
O2720       O  0.70285267  0.57442800  0.64253155    -0.87100
H2721       H  0.74647503  0.59050799  0.65761116    -0.05400
H2722       H  0.63104463  0.59054201  0.59296151    -0.05600
C2723       C  0.72135102  0.57592655  0.66106646     0.88000
C2724       C  0.61030038  0.51476820  0.66830128     0.88500
C2725       C  0.64608377  0.58456306  0.60511737     0.88600
H2726       H  0.73561751  0.67609108  0.68428006    -0.05600
O2727       O  0.69472180  0.61620994  0.72878289    -0.74600
Mg2728     Mg  0.71808243  0.61434803  0.61398285     1.58000
H2729       H  0.69969462  0.58025138  0.74546658    -0.05600
C2730       C  0.68199692  0.98187878  0.65946833     0.93600
O2731       O  0.68247693  0.53074637  0.58870486    -0.81800
C2732       C  0.69962776  0.55194904  0.57116125     0.93600
O2733       O  0.59575228  0.51471275  0.75040485    -0.81800
Mg2734     Mg  0.67129618  0.64200732  0.70879944     1.58200
O2735       O  0.69210996  0.00402636  0.64143589    -0.80100
O2736       O  0.66566058  0.68781427  0.65177800    -0.81800
C2737       C  0.56044676  0.65517315  0.86382642     0.03200
C2738       C  0.59051065  0.65806234  0.86489161     0.03200
C2739       C  0.60002884  0.64564944  0.84296856    -0.17300
C2740       C  0.58056696  0.63102627  0.81943081     0.03200
C2741       C  0.55037974  0.62831166  0.81827483     0.03200
C2742       C  0.54048862  0.63982861  0.84082497    -0.17300
H2743       H  0.51721703  0.63736146  0.84022810     0.05200
H2744       H  0.62223061  0.64603163  0.84517194     0.05200
C2745       C  0.57811963  0.89365639  0.85320320     0.03200
C2746       C  0.60793889  0.92186382  0.85079103     0.03200
C2747       C  0.61548091  0.93963825  0.82583246    -0.17300
C2748       C  0.59376416  0.93068284  0.80350639     0.03200
C2749       C  0.56324192  0.90346056  0.80655232     0.03200
C2750       C  0.55602884  0.88510180  0.83115952    -0.17300
H2751       H  0.53292340  0.86387806  0.83317767     0.05200
H2752       H  0.63847563  0.96109284  0.82393045     0.05200
O2753       O  0.97115094  0.61471685  0.66614522    -0.87400
C2754       C  0.91540165  0.60517217  0.73177742     0.88600
Mg2755     Mg  0.96944196  0.63694355  0.62711480     1.58100
O2756       O  0.89996196  0.53570142  0.69427264    -0.87200
O2757       O  0.97364288  0.57436758  0.68384878    -0.74500
C2758       C  0.82031704  0.55748826  0.58593577     0.93700
O2759       O  0.94145470  0.65728493  0.68256257    -0.74300
O2760       O  0.84509494  0.58477657  0.58252221    -0.81800
Mg2761     Mg  0.97458817  0.64126901  0.70301539     1.58000
C2762       C  0.81605262  0.96841712  0.66848574     0.93600
O2763       O  0.50855126  0.63473901  0.72899044    -0.80100
H2764       H  0.91337940  0.50549562  0.67958333    -0.05400
C2765       C  0.84497002  0.57476838  0.66751924     0.88500
O2766       O  0.94240491  0.58748123  0.60579155    -0.74600
O2767       O  0.93524775  0.60025292  0.72051552    -0.87300
O2768       O  0.83713828  0.97830129  0.68723217    -0.80200
C2769       C  0.87952360  0.51729488  0.76602991     0.93700
C2770       C  0.00778644  0.61137067  0.74697930     0.93500
Mg2771     Mg  0.85324128  0.52927841  0.63163139     1.58000
O2772       O  0.81777701  0.53903298  0.60626110    -0.80100
O2773       O  0.88593556  0.51353493  0.65255741    -0.74300
O2774       O  0.90896909  0.53392396  0.76075096    -0.80200
O2775       O  0.51499581  0.68745700  0.68613261    -0.81900
O2776       O  0.91821191  0.63293767  0.57232341    -0.80200
C2777       C  0.90014091  0.51762360  0.67591414     0.88000
O2778       O  0.89277192  0.57064588  0.61450598    -0.87300
O2779       O  0.85644364  0.55706753  0.66782073    -0.87400
O2780       O  0.85317500  0.59661273  0.64924721    -0.74500
Mg2781     Mg  0.94008930  0.55794249  0.72173059     1.58000
O2782       O  0.85865413  0.51576581  0.74930331    -0.81900
H2783       H  0.99870536  0.59923948  0.64979875    -0.05600
O2784       O  0.92720446  0.63601122  0.64048763    -0.87100
H2785       H  0.91312409  0.66519354  0.65643657    -0.05400
H2786       H  0.90625660  0.54569383  0.59045267    -0.05600
C2787       C  0.92672728  0.65334390  0.65944636     0.88000
C2788       C  0.98197852  0.59646489  0.66579667     0.88500
C2789       C  0.91325852  0.56711318  0.60278716     0.88600
H2790       H  0.82785577  0.57178322  0.68319953    -0.05600
O2791       O  0.88607277  0.58656735  0.72781315    -0.74600
Mg2792     Mg  0.88730669  0.61217906  0.61193478     1.58000
H2793       H  0.92328548  0.62683248  0.74400925    -0.05600
C2794       C  0.51955466  0.70275379  0.66339537     0.93600
O2795       O  0.96803777  0.66012144  0.58727518    -0.81800
C2796       C  0.94699205  0.65448218  0.56899731     0.93600
O2797       O  0.98295953  0.58411361  0.75046815    -0.81800
Mg2798     Mg  0.85847446  0.53698397  0.70774399     1.58200
O2799       O  0.49941713  0.69265738  0.64369761    -0.80100
O2800       O  0.81965466  0.98363132  0.64594575    -0.81800
O2801       O  0.95530873  0.82159250  0.68761775    -0.87400
C2802       C  0.95164819  0.90467684  0.69298319     0.88600
Mg2803     Mg  0.96161504  0.80217483  0.64890216     1.58100
O2804       O  0.87975926  0.83264426  0.70280376    -0.87200
O2805       O  0.92521040  0.80787154  0.72458900    -0.74500
C2806       C  0.85335039  0.79939800  0.56447130     0.93700
O2807       O  0.98961284  0.88403578  0.64774017    -0.74300
O2808       O  0.88103828  0.80341718  0.56250621    -0.81800
Mg2809     Mg  0.98823101  0.87274668  0.69458715     1.58000
C2810       C  0.80071947  0.82029057  0.65806050     0.93600
O2811       O  0.99481950  0.86852930  0.74111059    -0.80100
H2812       H  0.85376445  0.79165994  0.72363626    -0.05400
C2813       C  0.89533682  0.86842607  0.62219775     0.88500
O2814       O  0.90892747  0.76511039  0.64482523    -0.74600
O2815       O  0.94893643  0.87920464  0.70142177    -0.87300
O2816       O  0.82230211  0.84027802  0.67438529    -0.80200
C2817       C  0.88406099  0.89592633  0.74447842     0.93700
C2818       C  0.98415499  0.87138570  0.76446136     0.93500
Mg2819     Mg  0.84837581  0.79802858  0.63454018     1.58000
O2820       O  0.84206270  0.80174557  0.58772190    -0.80100
O2821       O  0.84762141  0.78735099  0.68148548    -0.74300
O2822       O  0.90582370  0.88919999  0.74901801    -0.80200
O2823       O  0.53298467  0.87077041  0.68717634    -0.81900
O2824       O  0.93227959  0.78271006  0.57994133    -0.80200
C2825       C  0.85995394  0.80367549  0.70360317     0.88000
O2826       O  0.88812055  0.79207876  0.62746978    -0.87300
O2827       O  0.88095144  0.84923348  0.64119745    -0.87400
O2828       O  0.91155128  0.86321390  0.60450525    -0.74500
Mg2829     Mg  0.91686988  0.85004389  0.73383836     1.58000
O2830       O  0.86825521  0.88846183  0.72163631    -0.81900
H2831       H  0.94136452  0.78014716  0.70764161    -0.05600
O2832       O  0.95743025  0.83886246  0.62637678    -0.87100
H2833       H  0.98369178  0.87980528  0.60556227    -0.05400
H2834       H  0.86246721  0.74486687  0.63467932    -0.05600
C2835       C  0.97735114  0.86778121  0.62559133     0.88000
C2836       C  0.94098255  0.80239624  0.70661892     0.88500
C2837       C  0.88541891  0.76642137  0.63529374     0.88600
H2838       H  0.89470262  0.89053416  0.62099538    -0.05600
O2839       O  0.92814001  0.90585767  0.68323808    -0.74600
Mg2840     Mg  0.92054662  0.82150055  0.59528102     1.58000
H2841       H  0.97466037  0.92616498  0.69314767    -0.05600
C2842       C  0.53765397  0.85355754  0.67006263     0.93600
O2843       O  0.97009668  0.78406794  0.60731039    -0.81800
C2844       C  0.95459855  0.77673732  0.58433991     0.93600
O2845       O  0.95676867  0.86814495  0.76661285    -0.81800
Mg2846     Mg  0.87532437  0.86904736  0.67997451     1.58200
O2847       O  0.51655480  0.83418202  0.65311818    -0.80100
O2848       O  0.80527151  0.80309595  0.64070516    -0.81800
C2849       C  0.81454754  0.89094346  0.85319921     0.03200
C2850       C  0.81466077  0.92040942  0.85429167     0.03200
C2851       C  0.82897043  0.94270733  0.83241803    -0.17300
C2852       C  0.84154283  0.93560243  0.80889515     0.03200
C2853       C  0.83943554  0.90522494  0.80685995     0.03200
C2854       C  0.82667877  0.88369966  0.82941572    -0.17300
H2855       H  0.82618554  0.86091876  0.82846607     0.05200
H2856       H  0.82881198  0.96515399  0.83288521     0.05200
C2857       C  0.53061070  0.77776248  0.48038254     0.03200
C2858       C  0.51897158  0.74432309  0.47671925     0.03200
C2859       C  0.49990204  0.72251782  0.49729608    -0.17300
C2860       C  0.99147590  0.72951724  0.52338255     0.03200
C2861       C  0.00205990  0.76253079  0.52740958     0.03200
C2862       C  0.52267022  0.78803317  0.50516768    -0.17300
H2863       H  0.53095921  0.81337759  0.50818096     0.05200
H2864       H  0.49235175  0.69728287  0.49467717     0.05200
C2865       C  0.76205810  0.76876209  0.47272503     0.03200
C2866       C  0.73607547  0.73712973  0.47235823     0.03200
C2867       C  0.73152932  0.71686754  0.49524702    -0.17300
C2868       C  0.75223666  0.72756841  0.51843592     0.03200
C2869       C  0.77835494  0.75939397  0.51862504     0.03200
C2870       C  0.78275880  0.77958976  0.49576803    -0.17300
H2871       H  0.80268595  0.80393543  0.49571630     0.05200
H2872       H  0.71201225  0.69230271  0.49482489     0.05200
C2873       C  0.73171930  0.99929928  0.47303168     0.03200
C2874       C  0.76277970  0.00428660  0.47030825     0.03200
C2875       C  0.78261891  0.52274268  0.49264769    -0.17300
C2876       C  0.77520064  0.53657137  0.51533384     0.03200
C2877       C  0.74553384  0.53513097  0.51554542     0.03200
C2878       C  0.72377298  0.51855807  0.49382638    -0.17300
H2879       H  0.70165277  0.51849733  0.49298991     0.05200
H2880       H  0.80576899  0.52497971  0.49184716     0.05200
O2881       O  0.95170040  0.50239202  0.98180587    -0.87400
C2882       C  0.51597858  0.54842449  0.04422943     0.88600
Mg2883     Mg  0.92041840  0.95351851  0.98342296     1.58100
O2884       O  0.54942590  0.54332744  0.98036872    -0.87200
O2885       O  0.48684061  0.53979965  0.95537799    -0.74500
C2886       C  0.51658057  0.89511102  0.00301132     0.93700
O2887       O  0.94808437  0.48656147  0.04835281    -0.74300
O2888       O  0.98500466  0.88752852  0.01527478    -0.81800
Mg2889     Mg  0.95520230  0.52786745  0.02015590     1.58000
C2890       C  0.61674486  0.51330121  0.98359150     0.93600
O2891       O  0.95912635  0.57126001  0.99804313    -0.80100
H2892       H  0.55761153  0.55384860  0.93971476    -0.05400
C2893       C  0.53702260  0.97838208  0.03742179     0.88500
O2894       O  0.95230344  0.94479317  0.95410110    -0.74600
O2895       O  0.50361171  0.54642930  0.02117214    -0.87300
O2896       O  0.61344012  0.53542966  0.99500838    -0.80200
C2897       C  0.59946297  0.61604836  0.01508952     0.93700
C2898       C  0.47761785  0.59774804  0.99383387     0.93500
Mg2899     Mg  0.54173444  0.96709666  0.97449163     1.58000
O2900       O  0.53814727  0.92169876  0.99333588    -0.80100
O2901       O  0.54861060  0.01006932  0.94863329    -0.74300
O2902       O  0.57326438  0.61265161  0.00626821    -0.80200
O2903       O  0.90218021  0.50684003  0.02104688    -0.81900
O2904       O  0.91834587  0.87985851  0.99600021    -0.80200
C2905       C  0.55255577  0.53650074  0.95615242     0.88000
O2906       O  0.98863653  0.94487369  0.98072534    -0.87300
O2907       O  0.54533233  0.99094375  0.01415908    -0.87400
O2908       O  0.00570894  0.95265509  0.04622912    -0.74500
Mg2909     Mg  0.52823605  0.57292945  0.98389391     1.58000
O2910       O  0.60387522  0.59246823  0.01915207    -0.81900
H2911       H  0.94451220  0.50287107  0.94064136    -0.05600
O2912       O  0.94373771  0.94967925  0.02092379    -0.87100
H2913       H  0.93743483  0.94175090  0.06206534    -0.05400
H2914       H  0.98602965  0.93580988  0.93965361    -0.05600
C2915       C  0.94244602  0.95833532  0.04497410     0.88000
C2916       C  0.96043856  0.51383425  0.95820781     0.88500
C2917       C  0.97603300  0.94121234  0.95754776     0.88600
H2918       H  0.55310404  0.98872554  0.05497825    -0.05600
O2919       O  0.53974901  0.54475557  0.04694055    -0.74600
Mg2920     Mg  0.96372674  0.91931446  0.01814597     1.58000
H2921       H  0.50557758  0.55222682  0.06269770    -0.05600
C2922       C  0.87852357  0.47968151  0.01462834     0.93600
O2923       O  0.88792762  0.90014681  0.98280146    -0.81800
C2924       C  0.89217670  0.87647876  0.98712875     0.93600
O2925       O  0.50518626  0.60354926  0.98722386    -0.81800
Mg2926     Mg  0.57323346  0.53907864  0.01730946     1.58200
O2927       O  0.88183522  0.96005308  0.00577489    -0.80100
O2928       O  0.59443321  0.98826175  0.97354216    -0.81800
O2929       O  0.87036093  0.64821181  0.31428664    -0.87400
C2930       C  0.80309269  0.60978997  0.37436014     0.88600
Mg2931     Mg  0.90959725  0.69549294  0.32072913     1.58100
O2932       O  0.78356655  0.63544095  0.31277609    -0.87200
O2933       O  0.83192833  0.61943106  0.28495583    -0.74500
C2934       C  0.85066010  0.78608306  0.35365526     0.93700
O2935       O  0.87985810  0.65838916  0.38131740    -0.74300
O2936       O  0.87560337  0.78460567  0.35607241    -0.81800
Mg2937     Mg  0.86130607  0.61693165  0.34900076     1.58000
C2938       C  0.73383922  0.68473401  0.32143372     0.93600
O2939       O  0.84432660  0.57242509  0.32088399    -0.80100
H2940       H  0.77482525  0.63182967  0.27152883    -0.05400
C2941       C  0.80765142  0.69495283  0.37938551     0.88500
O2942       O  0.88605294  0.71605806  0.29182681    -0.74600
O2943       O  0.81550789  0.61184167  0.35136781    -0.87300
O2944       O  0.73272922  0.65772108  0.32081328    -0.80200
C2945       C  0.71968044  0.56330200  0.33984192     0.93700
C2946       C  0.81721299  0.54811798  0.31625218     0.93500
Mg2947     Mg  0.80819067  0.71759106  0.32036440     1.58000
O2948       O  0.82395304  0.76150571  0.34849982    -0.80100
O2949       O  0.79065363  0.67645011  0.28785121    -0.74300
O2950       O  0.74569759  0.56388411  0.33994600    -0.80200
O2951       O  0.90998056  0.62335206  0.34449110    -0.81900
O2952       O  0.92421658  0.77184212  0.33179658    -0.80200
C2953       C  0.78258032  0.64698989  0.28997208     0.88000
O2954       O  0.85404424  0.72319213  0.31878499    -0.87300
O2955       O  0.79829083  0.68608026  0.35515069    -0.87400
O2956       O  0.83668960  0.71398993  0.38482991    -0.74500
Mg2957     Mg  0.78860577  0.59390392  0.31369127     1.58000
O2958       O  0.71821997  0.58888367  0.33905737    -0.81900
H2959       H  0.87769022  0.64736112  0.27316879    -0.05600
O2960       O  0.88656252  0.69960956  0.35684936    -0.87100
H2961       H  0.89621759  0.70297587  0.39792040    -0.05400
H2962       H  0.85930423  0.73483474  0.27815472    -0.05600
C2963       C  0.88799274  0.68789810  0.37943626     0.88000
C2964       C  0.86096531  0.63870762  0.29018248     0.88500
C2965       C  0.86614747  0.72531415  0.29564432     0.88600
H2966       H  0.79087828  0.68583701  0.39635573    -0.05600
O2967       O  0.78254281  0.61836878  0.37758756    -0.74600
Mg2968     Mg  0.88050538  0.74076251  0.35680037     1.58000
H2969       H  0.80990266  0.60059975  0.39211831    -0.05600
C2970       C  0.93597838  0.64965054  0.34587541     0.93600
O2971       O  0.95078649  0.74584243  0.32775452    -0.81800
C2972       C  0.94965319  0.77164996  0.32829265     0.93600
O2973       O  0.79247853  0.55000160  0.31499197    -0.81800
Mg2974     Mg  0.75929415  0.63892771  0.34786534     1.58200
O2975       O  0.93720566  0.67675286  0.34660109    -0.80100
O2976       O  0.75965237  0.71104750  0.32363180    -0.81800
O2977       O  0.63430797  0.85351049  0.64404311    -0.87400
C2978       C  0.70004389  0.89555183  0.70608165     0.88600
Mg2979     Mg  0.59417432  0.80671934  0.64671749     1.58100
O2980       O  0.72343133  0.87064107  0.64528092    -0.87200
O2981       O  0.67270818  0.88508439  0.61634090    -0.74500
C2982       C  0.65454253  0.72002424  0.68057877     0.93700
O2983       O  0.62266959  0.84355308  0.71184635    -0.74300
O2984       O  0.62836614  0.71892995  0.68412051    -0.81800
Mg2985     Mg  0.64158928  0.88442623  0.67982004     1.58000
C2986       C  0.77060812  0.81959724  0.65879838     0.93600
O2987       O  0.65736142  0.92676764  0.65152607    -0.80100
H2988       H  0.73201034  0.87369658  0.60415404    -0.05400
C2989       C  0.69421495  0.80859110  0.71143730     0.88500
O2990       O  0.61688716  0.78401348  0.62056870    -0.74600
O2991       O  0.68800397  0.89105943  0.68260531    -0.87300
O2992       O  0.77180700  0.84557843  0.66581311    -0.80200
C2993       C  0.78631644  0.93937515  0.67276735     0.93700
C2994       C  0.68322884  0.95299747  0.65333340     0.93500
Mg2995     Mg  0.69550012  0.78777996  0.65209643     1.58000
O2996       O  0.68052842  0.74623132  0.68103235    -0.80100
O2997       O  0.71323706  0.82863796  0.62000788    -0.74300
O2998       O  0.76152037  0.94104456  0.66898526    -0.80200
O2999       O  0.59304540  0.87864260  0.67648444    -0.81900
O3000       O  0.57392405  0.73077678  0.66773321    -0.80200
C3001       C  0.72363872  0.85857718  0.62250122     0.88000
O3002       O  0.64869094  0.78043559  0.65014422    -0.87300
O3003       O  0.70355134  0.81883201  0.68766370    -0.87400
O3004       O  0.66538206  0.78855680  0.71601321    -0.74500
Mg3005     Mg  0.71598176  0.91093503  0.64563562     1.58000
O3006       O  0.78575779  0.91348593  0.67871854    -0.81900
H3007       H  0.62753604  0.85603519  0.60296526    -0.05600
O3008       O  0.61350895  0.80181586  0.68680477    -0.87100
H3009       H  0.60314112  0.79838403  0.72756445    -0.05400
H3010       H  0.64347380  0.76385809  0.61092987    -0.05600
C3011       C  0.61230600  0.81365202  0.70937102     0.88000
C3012       C  0.64390114  0.86443940  0.62046266     0.88500
C3013       C  0.63659675  0.77528330  0.62667758     0.88600
H3014       H  0.71082762  0.81724485  0.72875113    -0.05600
O3015       O  0.72028498  0.88728196  0.71156124    -0.74600
Mg3016     Mg  0.62141250  0.76191959  0.68781704     1.58000
H3017       H  0.69292052  0.90626588  0.72228548    -0.05600
C3018       C  0.56724327  0.85343796  0.67057874     0.93600
O3019       O  0.55099223  0.75772534  0.65174956    -0.81800
C3020       C  0.54971074  0.73205209  0.66006102     0.93600
O3021       O  0.70945161  0.95415313  0.65015622    -0.81800
Mg3022     Mg  0.74327612  0.86523524  0.68457090     1.58200
O3023       O  0.56573866  0.82720951  0.66391291    -0.80100
O3024       O  0.74470762  0.79400650  0.65390605    -0.81800
C3025       C  0.84837233  0.89389978  0.78119082    -0.15500
C3026       C  0.87582211  0.91108364  0.76738792    -0.30700
H3027       H  0.83269415  0.86909812  0.77480545     0.13500
H3028       H  0.89362572  0.93454930  0.77513526     0.14100
C3029       C  0.83255662  0.78970675  0.53951585    -0.15500
C3030       C  0.80095393  0.77185744  0.54251657    -0.30700
H3031       H  0.84301668  0.79477924  0.51880864     0.13500
H3032       H  0.79147861  0.76511436  0.56343696     0.14100
C3033       C  0.99333874  0.77461355  0.55271848    -0.15500
C3034       C  0.96319199  0.76183232  0.56143912    -0.30700
H3035       H  0.51306048  0.80006827  0.56095221     0.13500
H3036       H  0.94426343  0.74250747  0.54942211     0.14100
C3037       C  0.85256697  0.95824799  0.78508767    -0.15500
C3038       C  0.87448419  0.98961050  0.78771904    -0.30700
H3039       H  0.84321716  0.94837983  0.76444026     0.13500
H3040       H  0.88624635  0.99922095  0.80769306     0.14100
C3041       C  0.79412476  0.54571662  0.56509740    -0.15500
C3042       C  0.79970866  0.55306683  0.53765354    -0.30700
H3043       H  0.77060807  0.52756063  0.57163156     0.13500
H3044       H  0.82392391  0.56848334  0.53089821     0.14100
C3045       C  0.97761861  0.70657346  0.54691185    -0.15500
C3046       C  0.95646029  0.67503040  0.54398334    -0.30700
H3047       H  0.98587044  0.71615182  0.56785384     0.13500
H3048       H  0.94549110  0.66496276  0.52385597     0.14100
C3049       C  0.53973526  0.89272219  0.78340322    -0.15500
C3050       C  0.50843465  0.88056166  0.78733060    -0.30700
H3051       H  0.54888372  0.89662066  0.76221201     0.13500
H3052       H  0.99489465  0.87781672  0.80991060     0.14100
C3053       C  0.52774347  0.61280963  0.79464020    -0.15500
C3054       C  0.53266236  0.62609716  0.76896172    -0.30700
H3055       H  0.50445839  0.59305862  0.79985111     0.13500
H3056       H  0.55496032  0.64772643  0.76457651     0.14100
C3057       C  0.60454079  0.95060837  0.77755690    -0.15500
C3058       C  0.58919137  0.96456279  0.76599423    -0.30700
H3059       H  0.62814852  0.95774048  0.77024621     0.13500
H3060       H  0.56727167  0.96053513  0.77523158     0.14100
C3061       C  0.62213209  0.62914180  0.79152726    -0.15500
C3062       C  0.59134213  0.61720828  0.79720261    -0.30700
H3063       H  0.64014693  0.65050153  0.80218177     0.13500
H3064       H  0.57370974  0.59826539  0.78391563     0.14100
C3065       C  0.73728907  0.55173639  0.53749670    -0.15500
C3066       C  0.70726092  0.54043918  0.54565485    -0.30700
H3067       H  0.75619706  0.57198059  0.54870155     0.13500
H3068       H  0.68843737  0.51809973  0.53697642     0.14100
C3069       C  0.74001208  0.70731125  0.56727621    -0.15500
C3070       C  0.74685237  0.70370690  0.54074524    -0.30700
H3071       H  0.73945955  0.72891245  0.57294216     0.13500
H3072       H  0.74394572  0.68072160  0.53420417     0.14100
C3073       C  0.55265884  0.84137440  0.87760762    -0.15500
C3074       C  0.56903784  0.87368236  0.87896133    -0.30700
H3075       H  0.54698925  0.82949501  0.85729457     0.13500
H3076       H  0.57701102  0.88555611  0.89916495     0.14100
C3077       C  0.56379868  0.69782685  0.89515669    -0.15500
C3078       C  0.54875880  0.66686167  0.88690546    -0.30700
H3079       H  0.58453932  0.71563388  0.88403239     0.13500
H3080       H  0.52618769  0.64992148  0.89615562     0.14100
C3081       C  0.77630261  0.85077960  0.88706105    -0.15500
C3082       C  0.80607889  0.86912439  0.87779016    -0.30700
H3083       H  0.75715908  0.85183824  0.87642460     0.13500
H3084       H  0.82485117  0.86619464  0.88694589     0.14100
C3085       C  0.64206598  0.69149806  0.88828486    -0.15500
C3086       C  0.61089505  0.67076801  0.89005938    -0.30700
H3087       H  0.65278108  0.70105447  0.86808014     0.13500
H3088       H  0.59986099  0.66351546  0.91049226     0.14100
C3089       C  0.63074301  0.93551120  0.87455792    -0.15500
C3090       C  0.64570887  0.92115341  0.88613284    -0.30700
H3091       H  0.63735372  0.95973997  0.88110604     0.13500
H3092       H  0.64136872  0.89817176  0.87802711     0.14100
C3093       C  0.79905930  0.92770369  0.87754241    -0.15500
C3094       C  0.81127451  0.95722181  0.88869989    -0.30700
H3095       H  0.77775606  0.90821840  0.88658992     0.13500
H3096       H  0.83420772  0.97633933  0.88188337     0.14100
C3097       C  0.93854458  0.81461553  0.11372055    -0.15500
C3098       C  0.92449226  0.78359802  0.10558871    -0.33700
H3099       H  0.95934786  0.83256093  0.10274061     0.13500
H3100       H  0.90574301  0.76506381  0.11810376     0.14100
C3101       C  0.87974217  0.81714212  0.11506230    -0.15500
C3102       C  0.84817905  0.79841155  0.11619352    -0.30700
H3103       H  0.89098444  0.82462317  0.09473371     0.13500
H3104       H  0.83690751  0.78820235  0.13607056     0.14100
C3105       C  0.77299367  0.99396653  0.44491237    -0.15500
C3106       C  0.78796091  0.97692917  0.44677826    -0.30700
H3107       H  0.76720089  0.50270707  0.42513334     0.13500
H3108       H  0.79113235  0.96886378  0.46717190     0.14100
C3109       C  0.76993039  0.79012941  0.44820348    -0.15500
C3110       C  0.76506148  0.81531816  0.44757174    -0.30700
H3111       H  0.78177396  0.78584055  0.43098725     0.13500
H3112       H  0.75271402  0.81908467  0.46467101     0.14100
C3113       C  0.87799779  0.85306872  0.22153742    -0.15500
C3114       C  0.90743735  0.86482655  0.21141479    -0.30700
H3115       H  0.85893463  0.83044612  0.21347616     0.13500
H3116       H  0.92688456  0.88563365  0.22156443     0.14100
C3117       C  0.54617897  0.79773854  0.43109825    -0.15500
C3118       C  0.55002023  0.80288192  0.45902277    -0.30700
H3119       H  0.52842640  0.77449976  0.42316510     0.13500
H3120       H  0.56544396  0.82723285  0.46652653     0.14100
C3121       C  0.67602625  0.96672223  0.45485745    -0.15500
C3122       C  0.70755520  0.98447153  0.45026835    -0.30700
H3123       H  0.66693225  0.96013140  0.47597342     0.13500
H3124       H  0.71592206  0.98820934  0.42883392     0.14100
C3125       C  0.99765271  0.87324504  0.20800958    -0.15500
C3126       C  0.96593095  0.85955886  0.21046595    -0.30700
H3127       H  0.50429028  0.87597139  0.18649711     0.13500
H3128       H  0.95595643  0.85639007  0.23128749     0.14100
C3129       C  0.92004472  0.63412331  0.12918897    -0.15500
C3130       C  0.94468700  0.64214328  0.11229065    -0.30700
H3131       H  0.90447773  0.64378043  0.12542636     0.13500
H3132       H  0.95816504  0.62986636  0.11418707     0.14100
C3133       C  0.85460648  0.57661571  0.13514521    -0.15500
C3134       C  0.85720397  0.57352934  0.10745698    -0.30700
H3135       H  0.83125850  0.56801090  0.14386764     0.13500
H3136       H  0.87981381  0.57820949  0.09932227     0.14100
C3137       C  0.90457136  0.52506548  0.22351032    -0.15500
C3138       C  0.89023781  0.54249803  0.21862422    -0.30700
H3139       H  0.92461705  0.52890318  0.21098506     0.13500
H3140       H  0.86868020  0.53661567  0.22972602     0.14100
C3141       C  0.71093043  0.63281982  0.10612095    -0.15500
C3142       C  0.71944202  0.63475058  0.13312263    -0.30700
H3143       H  0.69030770  0.61087541  0.09873368     0.13500
H3144       H  0.73745608  0.65776816  0.14157574     0.14100
C3145       C  0.70352794  0.56611996  0.12844030    -0.15500
C3146       C  0.68751126  0.53859911  0.11389834    -0.30700
H3147       H  0.72787123  0.58291191  0.12286228     0.13500
H3148       H  0.66234682  0.52317041  0.11730262     0.14100
C3149       C  0.62663916  0.53698416  0.20675375    -0.15500
C3150       C  0.62593856  0.54086595  0.23462346    -0.30700
H3151       H  0.61322034  0.51281194  0.19813049     0.13500
H3152       H  0.64187904  0.56401839  0.24400106     0.14100
C3153       C  0.55565048  0.73976223  0.44414296    -0.15500
C3154       C  0.52606625  0.73054295  0.45210338    -0.30700
H3155       H  0.57567117  0.75682998  0.45671769     0.13500
H3156       H  0.50619883  0.71112839  0.44097408     0.14100
C3157       C  0.68262448  0.70789030  0.45039322    -0.15500
C3158       C  0.71424928  0.72522841  0.44778554    -0.30700
H3159       H  0.67221441  0.70172506  0.47110172     0.13500
H3160       H  0.72425193  0.73359598  0.42715451     0.14100
C3161       C  0.95273123  0.60330148  0.21769122    -0.15500
C3162       C  0.98421153  0.62238860  0.21487510    -0.30700
H3163       H  0.94352609  0.59375097  0.23830282     0.13500
H3164       H  0.49988383  0.64303958  0.19214530     0.14100
C3165       C  0.61952060  0.59980909  0.21884882    -0.15500
C3166       C  0.64994427  0.60951743  0.21368179    -0.30700
H3167       H  0.60081631  0.58275853  0.20510758     0.13500
H3168       H  0.66828627  0.62884688  0.22622433     0.14100
loop_ 
_geom_bond_atom_site_label_1 
_geom_bond_atom_site_label_2 
_geom_bond_distance 
_geom_bond_site_symmetry_2 
_ccdc_geom_bond_type 
O1           Mg3   2.149       .  S
O1           Mg9   2.172       .  S
O1           C36   1.236       .  S
C2           O15   1.234       .  S
C2           O39   1.267       .  A
C2           H41   1.081       .  S
Mg3          O32   2.154       .  S
Mg3          O47   2.283       .  S
Mg3          O43   2.256       .  S
Mg3          O14   2.292       .  S
O4          Mg46   2.157       .  S
O4          Mg29   2.144       .  S
O4           C25   1.235       .  S
O5           C36   1.269       .  A
O5          Mg29   2.293       .  S
C6            O8   1.272       .  A
C6           O20   1.274   1_455  A
C6         C2370   1.474   1_455  S
O7           C35   1.269       .  A
O7           Mg9   2.294       .  S
O8          Mg40   2.266       .  S
Mg9          O15   2.121       .  S
Mg9          O23   2.242       .  S
Mg9          O11   2.306       .  S
C10          O48   1.271       .  A
C10          O16   1.270       .  A
C10         C594   1.456       .  S
O11          C18   1.276       .  A
H12          C25   1.081       .  S
C13          O27   1.235       .  S
C13          O28   1.269       .  A
C13          H38   1.081       .  S
O14          C37   1.268       .  A
O15         Mg29   2.154       .  S
O16       Mg1630   2.277       .  S
C17          O30   1.271       .  A
C17          O22   1.272       .  A
C17         C777   1.465       .  S
C18          O45   1.271       .  A
C18         C781   1.477       .  S
Mg19         O26   2.131       .  S
Mg19         O27   2.170       .  S
Mg19         O20   2.289   1_455  S
Mg19         O21   2.288       .  S
Mg19       O1632   2.248   1_455  S
O21          C25   1.268       .  A
O22         Mg29   2.301       .  S
O23          C42   1.270       .  A
O24          C44   1.274       .  A
O24         Mg40   2.317       .  S
O26         Mg40   2.159       .  S
O26          C37   1.234       .  S
O27         Mg46   2.142       .  S
O28         Mg40   2.295       .  S
Mg29         O45   2.262       .  S
O30         Mg46   2.237       .  S
H31          C36   1.081       .  S
O32         Mg40   2.149       .  S
O32          C35   1.236       .  S
H33          C35   1.081       .  S
H34          C37   1.081       .  S
O39         Mg46   2.288       .  S
C42          O47   1.271       .  A
C42         C562   1.455       .  S
O43          C44   1.273       .  A
C44         C789   1.475       .  S
Mg46       O1600   2.287   1_455  S
O48       Mg1603   2.252       .  S
C49         C790   1.478       .  S
C49          C50   1.419       .  A
C49          C54   1.401       .  A
C50         C773   1.497       .  S
C50          C51   1.412       .  A
C51          H56   1.083       .  S
C51          C52   1.414       .  A
C52         C769   1.496       .  S
C52          C53   1.413       .  A
C53         C766   1.483       .  S
C53          C54   1.401       .  A
C54          H55   1.085       .  S
C57         C762   1.487       .  S
C57          C58   1.415       .  A
C57          C62   1.406       .  A
C58         C785   1.490       .  S
C58          C59   1.410       .  A
C59          H64   1.083       .  S
C59          C60   1.409       .  A
C60         C753   1.485       .  S
C60          C61   1.415       .  A
C61         C757   1.494       .  S
C61          C62   1.404       .  A
C62          H63   1.085       .  S
O65         Mg67   2.175       .  S
O65         Mg73   2.187       .  S
O65         C100   1.232       .  S
C66          O79   1.230       .  S
C66         O103   1.262       .  A
C66         H105   1.081       .  S
Mg67         O96   2.183       .  S
Mg67        O107   2.264       .  S
Mg67         O78   2.279       .  S
Mg67       O1695   2.226       .  S
O68        Mg110   2.194       .  S
O68         Mg93   2.164       .  S
O68          C89   1.236       .  S
O69         C100   1.268       .  A
O69         Mg93   2.303       .  S
C70          O72   1.276       .  A
C70          O84   1.271       .  A
C70         C745   1.474       .  S
O71          C99   1.270       .  A
O71         Mg73   2.295       .  S
O72        Mg104   2.295       .  S
Mg73         O79   2.122       .  S
Mg73         O75   2.291       .  S
Mg73       O1671   2.248   1_455  S
C74         O112   1.268       .  A
C74          O80   1.262       .  A
C74         C569   1.451       .  S
O75          C82   1.276       .  A
H76          C89   1.081       .  S
C77          O91   1.232       .  S
C77          O92   1.267       .  A
C77         H102   1.080       .  S
O78         C101   1.263       .  A
O79         Mg93   2.165       .  S
O80        Mg902   2.230   1_545  S
C81          O86   1.281       .  A
C81         O886   1.268       .  A
C81        C1566   1.478       .  S
C82         O109   1.279       .  A
C82        C2333   1.486   1_455  S
Mg83         O90   2.124       .  S
Mg83         O91   2.176       .  S
Mg83         O84   2.260       .  S
Mg83         O85   2.291       .  S
Mg83        O904   2.249       .  S
O85          C89   1.269       .  A
O86         Mg93   2.343       .  S
O87         C106   1.266       .  A
O87       Mg1657   2.241       .  S
O88         C108   1.278       .  A
O88        Mg104   2.330       .  S
O90        Mg104   2.166       .  S
O90         C101   1.230       .  S
O91        Mg110   2.154       .  S
O92        Mg104   2.299       .  S
Mg93        O109   2.316       .  S
O94         C873   1.268       .  A
O94        Mg902   2.231   1_545  S
H95         C100   1.081       .  S
O96        Mg104   2.158       .  S
O96          C99   1.236       .  S
H97          C99   1.081       .  S
H98         C101   1.081       .  S
O103       Mg110   2.275       .  S
C106        O111   1.264       .  A
C106        C596   1.446       .  S
O107        C108   1.273       .  A
C108        C741   1.484       .  S
Mg110       O872   2.243       .  S
Mg110       O886   2.226       .  S
O111      Mg1651   2.237       .  S
O112       Mg875   2.259   1_545  S
O113       Mg115   2.179       .  S
O113       Mg121   2.143       .  S
O113        C148   1.235       .  S
C114        O127   1.234       .  S
C114        O151   1.269       .  A
C114        H153   1.081       .  S
Mg115       O144   2.161       .  S
Mg115       O159   2.290       .  S
Mg115       O155   2.283       .  S
Mg115       O126   2.284       .  S
O116       Mg158   2.141       .  S
O116       Mg141   2.144       .  S
O116        C137   1.239       .  S
O117        C148   1.271       .  A
O117       Mg141   2.315       .  S
C118        O120   1.279       .  A
C118        O924   1.262       .  A
C118       C1553   1.472       .  S
O119        C147   1.274       .  A
O119       Mg121   2.317       .  S
O120       Mg152   2.344       .  S
Mg121       O127   2.146       .  S
Mg121       O135   2.244       .  S
Mg121       O123   2.298       .  S
C122        O160   1.260       .  A
C122        O128   1.271       .  A
C122        C570   1.445       .  S
O123        C130   1.273       .  A
H124        C137   1.081       .  S
C125        O139   1.235       .  S
C125        O140   1.271       .  A
C125        H150   1.081       .  S
O126        C149   1.266       .  A
O127       Mg141   2.158       .  S
O128       Mg950   2.292   1_545  S
C129        O142   1.272       .  A
C129        O134   1.278       .  A
C129        C730   1.485       .  S
C130        O157   1.272       .  A
C130        C734   1.482       .  S
Mg131       O138   2.124       .  S
Mg131       O139   2.137       .  S
Mg131       O133   2.311       .  S
Mg131       O924   2.221       .  S
Mg131       O952   2.217       .  S
O132        C910   1.269       .  A
O132       Mg923   2.256   1_545  S
O133        C137   1.274       .  A
O134       Mg141   2.342       .  S
O135        C154   1.264       .  A
O136        C156   1.281       .  A
O136       Mg152   2.348       .  S
O138       Mg152   2.172       .  S
O138        C149   1.233       .  S
O139       Mg158   2.165       .  S
O140       Mg152   2.312       .  S
Mg141       O157   2.285       .  S
O142       Mg158   2.275       .  S
H143        C148   1.081       .  S
O144       Mg152   2.157       .  S
O144        C147   1.238       .  S
H145        C147   1.081       .  S
H146        C149   1.081       .  S
O151       Mg158   2.303       .  S
C154        O159   1.271       .  A
C154        C558   1.451       .  S
O155        C156   1.275       .  A
C156        C737   1.482       .  S
Mg158       O920   2.289       .  S
O160       Mg923   2.218   1_545  S
C161        C750   1.486       .  S
C161        C162   1.420       .  A
C161        C166   1.407       .  A
C162        C738   1.501       .  S
C162        C163   1.407       .  A
C163        H168   1.084       .  S
C163        C164   1.404       .  A
C164        C725   1.478       .  S
C164        C165   1.423       .  A
C165        C721   1.502       .  S
C165        C166   1.406       .  A
C166        H167   1.085       .  S
O169       Mg171   2.135   1_556  S
O169       Mg969   2.139       .  S
O169        C204   1.234       .  S
C170        O183   1.237   1_545  S
C170        O207   1.272       .  A
C170        H209   1.081       .  S
Mg171       O992   2.148       .  S
Mg171       O182   2.298       .  S
Mg171      O1007   2.324       .  S
Mg171      O1003   2.226       .  S
O172       Mg197   2.167       .  S
O172      Mg1006   2.140       .  S
O172        C193   1.239       .  S
O173        C204   1.267       .  A
O173       Mg197   2.289       .  S
C174        O176   1.278       .  A
C174        O188   1.272       .  A
C174        C758   1.480       .  S
O175        C203   1.272   1_556  A
O175       Mg177   2.307   1_545  S
O176       Mg208   2.319       .  S
Mg177       O183   2.145       .  S
Mg177       O961   2.141       .  S
Mg177       O191   2.267   1_565  S
Mg177       O971   2.294       .  S
C178        O216   1.266       .  A
C178        O184   1.273   1_554  A
C178       C1338   1.469       .  S
O179        C186   1.272       .  A
O179       Mg969   2.284       .  S
H180        C193   1.081       .  S
C181        O195   1.236       .  S
C181        O196   1.272       .  A
C181        H206   1.081   1_554  S
O182        C205   1.271       .  A
O183       Mg989   2.171       .  S
O184      Mg1006   2.327       .  S
C185        O198   1.272       .  A
C185        O190   1.273       .  A
C185        C718   1.469       .  S
C186        O213   1.275       .  A
C186        C714   1.485       .  S
Mg187       O194   2.150       .  S
Mg187       O987   2.127       .  S
Mg187       O189   2.325       .  S
Mg187       O216   2.257       .  S
Mg187       O980   2.289       .  S
O188       Mg979   2.298   1_545  S
O189        C193   1.276   1_554  A
O190       Mg197   2.301       .  S
O191        C210   1.270       .  A
O192        C212   1.282       .  A
O192       Mg208   2.352       .  S
O194      Mg1000   2.174       .  S
O194        C205   1.238       .  S
O195       Mg214   2.165   1_544  S
O195       Mg979   2.125   1_545  S
O196       Mg208   2.318       .  S
Mg197       O975   2.172       .  S
Mg197       O213   2.303       .  S
O198      Mg1006   2.266       .  S
H199        C204   1.081   1_554  S
O200       Mg208   2.157       .  S
O200       Mg963   2.152   1_545  S
O200        C203   1.237       .  S
H201        C203   1.081       .  S
H202        C205   1.081       .  S
O207       Mg214   2.307   1_545  S
Mg208       O986   2.167   1_545  S
C210        O215   1.275   1_556  A
C210        C514   1.466       .  S
O211        C212   1.267       .  A
O211       Mg963   2.233   1_545  S
C212        C770   1.474       .  S
Mg214       O964   2.137       .  S
Mg214       O976   2.329       .  S
Mg214       O990   2.269       .  S
O215       Mg963   2.322   1_545  S
O217       Mg219   2.166   1_556  S
O217       Mg225   2.152       .  S
O217        C252   1.234       .  S
C218        O231   1.237       .  S
C218        O255   1.272       .  A
C218        H257   1.081       .  S
Mg219       O248   2.145       .  S
Mg219       O263   2.314       .  S
Mg219       O259   2.297       .  S
Mg219       O230   2.303       .  S
O220       Mg262   2.137       .  S
O220       Mg245   2.166       .  S
O220        C241   1.237   1_556  S
O221        C252   1.268       .  A
O221       Mg245   2.296       .  S
C222        O224   1.271       .  A
C222        O236   1.275       .  A
C222        C765   1.483       .  S
O223        C251   1.272       .  A
O223       Mg225   2.314       .  S
O224       Mg256   2.276       .  S
Mg225       O231   2.133       .  S
Mg225       O239   2.228       .  S
Mg225       O227   2.299       .  S
C226        O264   1.269       .  A
C226        O232   1.273   1_554  A
C226        C521   1.470       .  S
O227        C234   1.273       .  A
H228        C241   1.081   1_556  S
C229        O243   1.233       .  S
C229        O244   1.267       .  A
C229        H254   1.081   1_554  S
O230        C253   1.272       .  A
O231       Mg245   2.172       .  S
O232       Mg262   2.326       .  S
C233        O246   1.271       .  A
C233        O238   1.273       .  A
C233        C709   1.466       .  S
C234        O261   1.275       .  A
C234        C705   1.489       .  S
Mg235       O242   2.146       .  S
Mg235       O243   2.137       .  S
Mg235       O236   2.297       .  S
Mg235       O237   2.319       .  S
Mg235       O264   2.265       .  S
O237        C241   1.273       .  A
O238       Mg245   2.300       .  S
O239        C258   1.265       .  A
O240        C260   1.269       .  A
O240       Mg256   2.274       .  S
O242       Mg256   2.179       .  S
O242        C253   1.238       .  S
O243       Mg262   2.149   1_554  S
O244       Mg256   2.294       .  S
Mg245       O261   2.305       .  S
O246       Mg262   2.243       .  S
H247        C252   1.081   1_554  S
O248       Mg256   2.149       .  S
O248        C251   1.237   1_554  S
H249        C251   1.081   1_554  S
H250        C253   1.081       .  S
O255       Mg262   2.305       .  S
C258        O263   1.274   1_556  A
C258        C548   1.453       .  S
O259        C260   1.276       .  A
C260        C726   1.477       .  S
O265       Mg267   2.140   1_556  S
O265      Mg1857   2.147       .  S
O265        C300   1.232       .  S
C266        O279   1.236       .  S
C266        O303   1.269       .  A
C266        H305   1.081       .  S
Mg267      O1880   2.142       .  S
Mg267       O311   2.252       .  S
Mg267       O307   2.219       .  S
Mg267       O278   2.289       .  S
O268      Mg1894   2.125       .  S
O268      Mg1877   2.130       .  S
O268        C289   1.240       .  S
O269        C300   1.266       .  A
O269      Mg1877   2.290       .  S
C270        O272   1.276       .  A
C270        O284   1.275       .  A
C270        C754   1.469       .  S
O271        C299   1.275       .  A
O271       Mg273   2.319   1_554  S
O272       Mg304   2.284       .  S
Mg273       O279   2.137       .  S
Mg273      O1849   2.146   1_455  S
Mg273       O287   2.261       .  S
Mg273       O275   2.327       .  S
C274        O312   1.268   1_556  A
C274       O1864   1.260       .  A
C274       C2106   1.451       .  S
O275        C282   1.279       .  A
H276        C289   1.082       .  S
C277        O291   1.232   1_455  S
C277        O292   1.268       .  A
C277        H302   1.080       .  S
O278        C301   1.269       .  A
O279       Mg293   2.171       .  S
O280       C1858   1.261       .  A
O280       Mg310   2.239   1_655  S
C281        O294   1.267       .  A
C281        O286   1.276       .  A
C281        C701   1.475       .  S
C282        O309   1.270       .  A
C282        C697   1.471       .  S
Mg283       O290   2.143       .  S
Mg283      O1875   2.141       .  S
Mg283       O284   2.310       .  S
Mg283       O285   2.322   1_554  S
Mg283       O312   2.263       .  S
O285        C289   1.276       .  A
O286       Mg293   2.334       .  S
O287        C306   1.270   1_556  A
O288        C308   1.281       .  A
O288       Mg304   2.359       .  S
O290       Mg304   2.173       .  S
O290        C301   1.236       .  S
O291       Mg310   2.158   1_654  S
O291      Mg1867   2.150       .  S
O292      Mg1888   2.303   1_455  S
Mg293      O1852   2.117   1_455  S
Mg293       O309   2.236       .  S
Mg293      O1853   2.295   1_455  S
O294       Mg310   2.235       .  S
H295        C300   1.081       .  S
O296      Mg1851   2.150       .  S
O296      Mg1888   2.148       .  S
O296        C299   1.239   1_655  S
H297        C299   1.082       .  S
H298        C301   1.081       .  S
O303       Mg310   2.292       .  S
Mg304      O1880   2.134       .  S
Mg304      O1876   2.313       .  S
C306       O1895   1.266       .  A
C306        C510   1.455       .  S
O307        C308   1.265       .  A
C308        C722   1.481       .  S
Mg310      O1852   2.127   1_455  S
O311       C1890   1.264       .  A
O313       Mg315   2.137       .  S
O313       Mg321   2.135       .  S
O313        C348   1.230       .  S
C314        O327   1.236       .  S
C314        O351   1.267       .  A
C314        H353   1.081       .  S
Mg315       O344   2.168       .  S
Mg315       O355   2.204       .  S
Mg315       O326   2.284       .  S
Mg315      O1151   2.272   1_545  S
O316       Mg358   2.161       .  S
O316       Mg341   2.136       .  S
O316        C337   1.236       .  S
O317        C348   1.263       .  A
O317       Mg341   2.284       .  S
C318        O320   1.278       .  A
C318        O332   1.277       .  A
C318        C693   1.484       .  S
O319        C347   1.274       .  A
O319       Mg321   2.320       .  S
O320       Mg352   2.297       .  S
Mg321       O327   2.126       .  S
Mg321      O1127   2.261   1_545  S
Mg321      O1115   2.334   1_545  S
C322        O360   1.270       .  A
C322        O328   1.263       .  A
C322        C606   1.446       .  S
O323       C1122   1.285       .  A
O323      Mg1113   2.355       .  S
H324        C337   1.081       .  S
C325        O339   1.232       .  S
C325        O340   1.267       .  A
C325        H350   1.081       .  S
O326        C349   1.268       .  A
O327       Mg341   2.187       .  S
O328       Mg358   2.263       .  S
C329        O342   1.264       .  A
C329        O334   1.273       .  A
C329        C685   1.462       .  S
C330        O357   1.273   1_565  A
C330       O1115   1.281       .  A
C330       C1474   1.478       .  S
Mg331       O338   2.134       .  S
Mg331       O339   2.135       .  S
Mg331       O332   2.317       .  S
Mg331       O333   2.302       .  S
Mg331       O360   2.252       .  S
O333        C337   1.271       .  A
O334       Mg341   2.296       .  S
O335        C354   1.270       .  A
O335      Mg1113   2.244       .  S
O336        C356   1.274       .  A
O336       Mg352   2.310       .  S
O338       Mg352   2.166       .  S
O338        C349   1.235       .  S
O339       Mg358   2.147       .  S
O340       Mg352   2.302       .  S
Mg341       O357   2.256       .  S
O342       Mg358   2.218       .  S
H343        C348   1.081   1_565  S
O344       Mg352   2.169       .  S
O344        C347   1.238       .  S
H345        C347   1.081       .  S
H346        C349   1.081       .  S
O351       Mg358   2.277       .  S
C354        O359   1.265       .  A
C354        C618   1.445       .  S
O355        C356   1.262       .  A
C356        C690   1.460       .  S
O359      Mg1107   2.272       .  S
C361        C702   1.483       .  S
C361        C362   1.406       .  A
C361        C366   1.403       .  A
C362        C710   1.475       .  S
C362        C363   1.400       .  A
C363        H368   1.082       .  S
C363        C364   1.407       .  A
C364        C686   1.488       .  S
C364        C365   1.418       .  A
C365        C677   1.487       .  S
C365        C366   1.407       .  A
C366        H367   1.084       .  S
C369        C698   1.482       .  S
C369        C370   1.409       .  A
C369        C374   1.409       .  A
C370        C713   1.484       .  S
C370        C371   1.402       .  A
C371        H376   1.085       .  S
C371        C372   1.406       .  A
C372        C681   1.492       .  S
C372        C373   1.419       .  A
C373        C673   1.487       .  S
C373        C374   1.408       .  A
C374        H375   1.084       .  S
O377       Mg379   2.172       .  S
O377       Mg385   2.140       .  S
O377        C412   1.233       .  S
C378        O391   1.236       .  S
C378        O415   1.270       .  A
C378        H417   1.081       .  S
Mg379       O408   2.142       .  S
Mg379       O419   2.230       .  S
Mg379       O390   2.296       .  S
Mg379      O2007   2.278       .  S
O380       Mg422   2.138       .  S
O380       Mg405   2.148       .  S
O380        C401   1.238       .  S
O381        C412   1.269       .  A
O381       Mg405   2.308       .  S
C382        O384   1.274       .  A
C382        O396   1.278       .  A
C382        C665   1.485       .  S
O383        C411   1.274       .  A
O383       Mg385   2.319       .  S
O384       Mg416   2.272       .  S
Mg385       O391   2.134       .  S
Mg385      O1983   2.241       .  S
Mg385      O1971   2.347       .  S
C386        O424   1.267       .  A
C386        O392   1.261       .  A
C386        C617   1.439       .  S
O387       C1978   1.278       .  A
O387      Mg1969   2.340   1_455  S
H388        C401   1.081       .  S
C389        O403   1.233       .  S
C389        O404   1.269       .  A
C389        H414   1.081       .  S
O390        C413   1.269       .  A
O391       Mg405   2.155       .  S
O392      Mg1214   2.260       .  S
C393        O406   1.266       .  A
C393        O398   1.274       .  A
C393       C1454   1.475   1_545  S
C394        O421   1.273       .  A
C394       O1971   1.279       .  A
C394       C2262   1.486       .  S
Mg395       O402   2.136       .  S
Mg395       O403   2.135       .  S
Mg395       O396   2.341       .  S
Mg395       O397   2.320       .  S
Mg395      O1216   2.249   1_545  S
O397        C401   1.274       .  A
O398       Mg405   2.324       .  S
O399        C418   1.266       .  A
O399      Mg1969   2.221   1_455  S
O400        C420   1.274       .  A
O400       Mg416   2.324       .  S
O402       Mg416   2.153       .  S
O402        C413   1.235       .  S
O403       Mg422   2.168       .  S
O404       Mg416   2.308       .  S
Mg405       O421   2.264       .  S
O406       Mg422   2.235       .  S
H407        C412   1.081       .  S
O408       Mg416   2.158       .  S
O408        C411   1.237       .  S
H409        C411   1.081       .  S
H410        C413   1.081       .  S
O415       Mg422   2.295       .  S
C418        O423   1.264       .  A
C418        C644   1.445       .  S
O419        C420   1.267       .  A
C420        C670   1.474       .  S
Mg422      O1184   2.260   1_545  S
O423      Mg1963   2.276   1_455  S
O424      Mg1187   2.232       .  S
O425       Mg427   2.162       .  S
O425       Mg433   2.184       .  S
O425        C460   1.236       .  S
C426        O439   1.232       .  S
C426        O463   1.265       .  A
C426        H465   1.081       .  S
Mg427       O456   2.161       .  S
Mg427       O467   2.289       .  S
Mg427       O438   2.290       .  S
Mg427      O2055   2.246       .  S
O428       Mg470   2.163       .  S
O428       Mg453   2.150       .  S
O428        C449   1.236       .  S
O429        C460   1.271       .  A
O429       Mg453   2.306       .  S
C430        O432   1.272       .  A
C430        O444   1.273       .  A
C430        C653   1.476       .  S
O431        C459   1.269       .  A
O431       Mg433   2.291       .  S
O432       Mg464   2.279       .  S
Mg433       O439   2.117       .  S
Mg433       O435   2.256       .  S
Mg433      O2031   2.227       .  S
C434        O472   1.268       .  A
C434        O440   1.271       .  A
C434        C610   1.456       .  S
O435        C442   1.269       .  A
H436        C449   1.081       .  S
C437        O451   1.235       .  S
C437        O452   1.270       .  A
C437        H462   1.081       .  S
O438        C461   1.265       .  A
O439       Mg453   2.150       .  S
O440       Mg470   2.255       .  S
C441        O454   1.275       .  A
C441        O446   1.276       .  A
C441        C650   1.478       .  S
C442        O469   1.273       .  A
C442       C2258   1.478       .  S
Mg443       O450   2.132       .  S
Mg443       O451   2.180       .  S
Mg443       O444   2.272       .  S
Mg443       O445   2.296       .  S
Mg443       O472   2.262       .  S
O445        C449   1.270       .  A
O446       Mg453   2.317       .  S
O447        C466   1.265       .  A
O447      Mg2017   2.243   1_455  S
O448        C468   1.277       .  A
O448       Mg464   2.328       .  S
O450       Mg464   2.159       .  S
O450        C461   1.232       .  S
O451       Mg470   2.162       .  S
O452       Mg464   2.303       .  S
Mg453       O469   2.294       .  S
O454       Mg470   2.292       .  S
H455        C460   1.081       .  S
O456       Mg464   2.143       .  S
O456        C459   1.235       .  S
H457        C459   1.081       .  S
H458        C461   1.081       .  S
O463       Mg470   2.288       .  S
C466        O471   1.270       .  A
C466        C642   1.452       .  S
O467        C468   1.274       .  A
C468        C658   1.480       .  S
O471      Mg2011   2.247   1_455  S
C473        C706   1.491       .  S
C473        C474   1.413       .  A
C473        C478   1.405       .  A
C474        C717   1.479       .  S
C474        C475   1.409       .  A
C475        H480   1.084       .  S
C475        C476   1.406       .  A
C476        C661   1.487       .  S
C476        C477   1.415       .  A
C477        C649   1.486       .  S
C477        C478   1.407       .  A
C478        H479   1.085       .  S
C481        C742   1.510       .  S
C481        C482   1.419       .  A
C481        C486   1.414       .  A
C482        C778   1.469       .  S
C482        C483   1.399       .  A
C483        H488   1.084   1_455  S
C483       C2068   1.400   1_455  A
C484        C669   1.485       .  S
C484        C485   1.415       .  A
C484       C2067   1.401       .  A
C485        C657   1.494       .  S
C485       C2070   1.411       .  A
C486        H487   1.084       .  S
C486       C2069   1.415       .  A
C489        C733   1.483       .  S
C489        C490   1.411       .  A
C489        C494   1.402       .  A
C490        C782   1.486       .  S
C490        C491   1.407       .  A
C491        H496   1.084       .  S
C491        C492   1.406       .  A
C492        C694   1.494       .  S
C492        C493   1.419       .  A
C493        C654   1.481       .  S
C493        C494   1.406       .  A
C494        H495   1.084       .  S
C497        C746   1.487       .  S
C497        C498   1.418       .  A
C497       C1294   1.400       .  A
C498        C729   1.493       .  S
C498       C1291   1.408       .  A
C499        H504   1.085       .  S
C499        C500   1.408       .  A
C499       C1290   1.408       .  A
C500        C666   1.490       .  S
C500        C501   1.417       .  A
C501        C689   1.491       .  S
C501        C502   1.407       .  A
C502        H503   1.082       .  S
C502       C1289   1.400       .  A
O505       Mg513   2.171   1_556  S
O505      Mg1299   2.134   1_545  S
O505        C540   1.235       .  S
C506        O519   1.232       .  S
C506        O543   1.265       .  A
C506        H545   1.081       .  S
Mg507       O536   2.169   1_556  S
Mg507      O1297   2.130       .  S
Mg507       O551   2.320   1_556  S
Mg507       O547   2.241       .  S
Mg507       O518   2.288       .  S
O508       Mg550   2.171   1_556  S
O508       Mg533   2.132       .  S
O508        C529   1.234       .  S
O509       C2124   1.269       .  A
O509       Mg533   2.290   1_655  S
C510        O524   1.270       .  A
C510       O2096   1.270   1_455  A
O511       C1331   1.265       .  A
O511       Mg513   2.276   1_565  S
O512       C2094   1.270       .  A
O512       Mg544   2.231       .  S
Mg513      O2103   2.155       .  S
Mg513       O527   2.255       .  S
Mg513       O515   2.254       .  S
C514        O520   1.276       .  A
C514       O1344   1.271   1_545  A
O515       C2106   1.267   1_554  A
H516        C529   1.081       .  S
C517        O531   1.235       .  S
C517       O2116   1.268       .  A
C517        H542   1.081       .  S
O518        C541   1.267       .  A
O519       Mg533   2.170   1_554  S
O519      Mg2097   2.145   1_455  S
O520       Mg550   2.322   1_556  S
C521        O534   1.275       .  A
C521        O526   1.280       .  A
C522        O549   1.274   1_655  A
C522       O2099   1.266   1_556  A
C522       C1858   1.451       .  S
Mg523       O531   2.172   1_556  S
Mg523      O2114   2.142   1_455  S
Mg523       O524   2.278   1_556  S
Mg523       O525   2.279       .  S
Mg523       O552   2.239       .  S
O525       C1321   1.265       .  A
O526       Mg533   2.339   1_554  S
O527        C546   1.271   1_545  A
O528        C548   1.271       .  A
O528       Mg544   2.288   1_556  S
C529       O1317   1.266       .  A
O530       Mg544   2.175   1_556  S
O530      Mg2107   2.143       .  S
O530        C541   1.234       .  S
O531      Mg1342   2.129       .  S
O532       C2101   1.266       .  A
O532       Mg544   2.279       .  S
Mg533       O549   2.264       .  S
O534       Mg550   2.260       .  S
H535        C540   1.081       .  S
O536       Mg544   2.132       .  S
O536        C539   1.233       .  S
H537        C539   1.081       .  S
H538        C541   1.081       .  S
C539       O1303   1.265       .  A
C540       O2093   1.269       .  A
O543       Mg550   2.284       .  S
C546       O1343   1.276       .  A
C546        C970   1.470       .  S
O547        C548   1.272       .  A
Mg550      O1323   2.146   1_545  S
O551       C1338   1.276       .  A
O552       C1306   1.270       .  A
O553       Mg555   2.134       .  S
O553       Mg561   2.133       .  S
O553        C588   1.237       .  S
C554        O567   1.237       .  S
C554        O591   1.273       .  A
C554        H593   1.082       .  S
Mg555       O584   2.122       .  S
Mg555       O599   2.316       .  S
Mg555       O595   2.262       .  S
Mg555       O566   2.316       .  S
O556       Mg598   2.118       .  S
O556       Mg581   2.140       .  S
O556        C577   1.234       .  S
O557        C588   1.272       .  A
O557       Mg581   2.310       .  S
C558        O560   1.262       .  A
C558        O572   1.272       .  A
O559        C587   1.270       .  A
O559       Mg561   2.311       .  S
O560       Mg592   2.233       .  S
Mg561       O567   2.123       .  S
Mg561       O575   2.240       .  S
Mg561       O563   2.286       .  S
C562        O600   1.267       .  A
C562        O568   1.274       .  A
O563        C570   1.269       .  A
H564        C577   1.081       .  S
C565        O579   1.236       .  S
C565        O580   1.271       .  A
C565        H590   1.081       .  S
O566        C589   1.273       .  A
O567       Mg581   2.124       .  S
O568       Mg598   2.312       .  S
C569        O582   1.270       .  A
C569        O574   1.259       .  A
C570        O597   1.260       .  A
Mg571       O578   2.125       .  S
Mg571       O579   2.139       .  S
Mg571       O572   2.297       .  S
Mg571       O573   2.313       .  S
Mg571       O600   2.246       .  S
O573        C577   1.270       .  A
O574       Mg581   2.247       .  S
O575        C594   1.266       .  A
O576        C596   1.261       .  A
O576       Mg592   2.250       .  S
O578       Mg592   2.136       .  S
O578        C589   1.237       .  S
O579       Mg598   2.143       .  S
O580       Mg592   2.303       .  S
Mg581       O597   2.225       .  S
O582       Mg598   2.279       .  S
H583        C588   1.081       .  S
O584       Mg592   2.143       .  S
O584        C587   1.234       .  S
H585        C587   1.081       .  S
H586        C589   1.082       .  S
O591       Mg598   2.318       .  S
C594        O599   1.274       .  A
O595        C596   1.269       .  A
O601       Mg603   2.111       .  S
O601       Mg609   2.160       .  S
O601        C636   1.233       .  S
C602        O615   1.231       .  S
C602        O639   1.266       .  A
C602        H641   1.081       .  S
Mg603       O632   2.193       .  S
Mg603       O647   2.249       .  S
Mg603       O643   2.248       .  S
Mg603       O614   2.283       .  S
O604       Mg646   2.181       .  S
O604       Mg629   2.148       .  S
O604        C625   1.235       .  S
O605        C636   1.268       .  A
O605       Mg629   2.298       .  S
C606        O608   1.267       .  A
C606        O620   1.263       .  A
O607        C635   1.267       .  A
O607       Mg609   2.291       .  S
O608       Mg640   2.267       .  S
Mg609       O615   2.133       .  S
Mg609       O623   2.245       .  S
Mg609       O611   2.234       .  S
C610        O648   1.266       .  A
C610        O616   1.269       .  A
O611        C618   1.263       .  A
H612        C625   1.081       .  S
C613        O627   1.234       .  S
C613        O628   1.268       .  A
C613        H638   1.082       .  S
O614        C637   1.264       .  A
O615       Mg629   2.155       .  S
O616       Mg646   2.252       .  S
C617        O630   1.265       .  A
C617        O622   1.266       .  A
C618        O645   1.266       .  A
Mg619       O626   2.131       .  S
Mg619       O627   2.159       .  S
Mg619       O620   2.230       .  S
Mg619       O621   2.296       .  S
Mg619       O648   2.254       .  S
O621        C625   1.269       .  A
O622       Mg629   2.235       .  S
O623        C642   1.266       .  A
O624        C644   1.267       .  A
O624       Mg640   2.232       .  S
O626       Mg640   2.153       .  S
O626        C637   1.231       .  S
O627       Mg646   2.104       .  S
O628       Mg640   2.300       .  S
Mg629       O645   2.259       .  S
O630       Mg646   2.230       .  S
H631        C636   1.082       .  S
O632       Mg640   2.139       .  S
O632        C635   1.234       .  S
H633        C635   1.081       .  S
H634        C637   1.081       .  S
O639       Mg646   2.297       .  S
C642        O647   1.270       .  A
O643        C644   1.268       .  A
C649        C650   1.345       .  D
C649        H651   1.087       .  S
C650        H652   1.087       .  S
C653        C654   1.348       .  D
C653        H655   1.086       .  S
C654        H656   1.082       .  S
C657        C658   1.351       .  D
C657       H2243   1.087       .  S
C658        H660   1.086       .  S
H659       C2241   1.087   1_455  S
C661        C662   1.349       .  D
C661        H663   1.088       .  S
C662       C1185   1.478       .  S
C662        H664   1.086       .  S
C665        C666   1.349       .  D
C665        H667   1.087       .  S
C666        H668   1.087       .  S
C669        C670   1.348       .  D
C669        H671   1.088       .  S
C670        H672   1.086       .  S
C673        C674   1.352       .  D
C673        H675   1.086       .  S
C674       C2026   1.481   1_455  S
C674       H2260   1.086   1_455  S
H676       C2258   1.086       .  S
C677        C678   1.347       .  D
C677        H679   1.087       .  S
C678       C1978   1.483       .  S
C678        H680   1.087       .  S
C681        C682   1.346       .  D
C681        H683   1.087       .  S
C682       C1122   1.482       .  S
C682        H684   1.087       .  S
C685        C686   1.346       .  D
C685        H687   1.085       .  S
C686        H688   1.087       .  S
C689        C690   1.345       .  D
C689        H691   1.087       .  S
C690        H692   1.085       .  S
C693        C694   1.347       .  D
C693        H695   1.087       .  S
C694        H696   1.087       .  S
C697        C698   1.341       .  D
C697        H699   1.088       .  S
C698        H700   1.087       .  S
C701        C702   1.349       .  D
C701        H703   1.086       .  S
C702        H704   1.087       .  S
C705        C706   1.352       .  D
C705        H707   1.086       .  S
C706        H708   1.086       .  S
C709        C710   1.340       .  D
C709        H711   1.087       .  S
C710        H712   1.087       .  S
C713        C714   1.350       .  D
C713        H715   1.086       .  S
C714        H716   1.086       .  S
C717        C718   1.342       .  D
C717        H719   1.087       .  S
C718        H720   1.087       .  S
C721        C722   1.344       .  D
C721        H723   1.087       .  S
C722        H724   1.082       .  S
C725        C726   1.337       .  D
C725        H727   1.086       .  S
C726        H728   1.087       .  S
C729        C730   1.350       .  D
C729       H1523   1.086       .  S
C730        H732   1.086       .  S
H731       C1521   1.086   1_545  S
C733        C734   1.347       .  D
C733        H735   1.086       .  S
C734        H736   1.087       .  S
C737        C738   1.352       .  D
C737        H739   1.086       .  S
C738        H740   1.086       .  S
C741        C742   1.354       .  D
C741        H743   1.083       .  S
C742        H744   1.087       .  S
C745        C746   1.355       .  D
C745        H747   1.086       .  S
C746        H748   1.086       .  S
C749       C1666   1.477       .  S
C749        C750   1.353       .  D
C749       H2335   1.087       .  S
C750        H752   1.087       .  S
H751       C2333   1.086   1_455  S
C753        C754   1.342       .  D
C753        H755   1.087       .  S
C754        H756   1.086       .  S
C757        C758   1.344       .  D
C757        H759   1.087       .  S
C758        H760   1.087       .  S
C761        C910   1.489       .  S
C761        C762   1.356       .  D
C761        H763   1.086       .  S
C762        H764   1.087       .  S
C765        C766   1.346       .  D
C765        H767   1.086       .  S
C766        H768   1.087       .  S
C769        C770   1.342       .  D
C769        H771   1.085       .  S
C770        H772   1.085       .  S
C773        C774   1.347       .  D
C773        H775   1.087       .  S
C774        C873   1.475       .  S
C774        H776   1.082       .  S
C777        C778   1.340       .  D
C777        H779   1.086       .  S
C778        H780   1.088       .  S
C781        C782   1.345       .  D
C781        H783   1.086       .  S
C782        H784   1.086       .  S
C785        C786   1.347       .  D
C785        H787   1.086       .  S
C786       C1590   1.477       .  S
C786       H2372   1.085       .  S
H788       C2370   1.087       .  S
C789        C790   1.343       .  D
C789        H791   1.086       .  S
C790        H792   1.087       .  S
O793       Mg795   2.146       .  S
O793       Mg801   2.172       .  S
O793        C828   1.235       .  S
C794        O807   1.234       .  S
C794        O831   1.267       .  A
C794        H833   1.081       .  S
Mg795       O824   2.156       .  S
Mg795       O839   2.280       .  S
Mg795       O835   2.244       .  S
Mg795       O806   2.295       .  S
O796       Mg838   2.156       .  S
O796       Mg821   2.153       .  S
O796        C817   1.234       .  S
O797        C828   1.268       .  A
O797       Mg821   2.292       .  S
C798        O800   1.272       .  A
C798        O812   1.278   1_455  A
C798       C3162   1.480   1_455  S
O799        C827   1.270       .  A
O799       Mg801   2.298       .  S
O800       Mg832   2.268       .  S
Mg801       O807   2.122       .  S
Mg801       O815   2.244       .  S
Mg801       O803   2.313       .  S
C802        O840   1.273       .  A
C802        O808   1.272       .  A
C802       C1386   1.463       .  S
O803        C810   1.277       .  A
H804        C817   1.081       .  S
C805        O819   1.234       .  S
C805        O820   1.268       .  A
C805        H830   1.081       .  S
O806        C829   1.268       .  A
O807       Mg821   2.156       .  S
O808      Mg2422   2.288       .  S
C809        O822   1.272       .  A
C809        O814   1.273       .  A
C809       C1569   1.467       .  S
C810        O837   1.272       .  A
C810       C1573   1.480       .  S
Mg811       O818   2.140       .  S
Mg811       O819   2.176       .  S
Mg811       O812   2.316   1_455  S
Mg811       O813   2.295       .  S
Mg811      O2424   2.263   1_455  S
O813        C817   1.269       .  A
O814       Mg821   2.300       .  S
O815        C834   1.270       .  A
O816        C836   1.274       .  A
O816       Mg832   2.319       .  S
O818       Mg832   2.166       .  S
O818        C829   1.234       .  S
O819       Mg838   2.154       .  S
O820       Mg832   2.296       .  S
Mg821       O837   2.272       .  S
O822       Mg838   2.251       .  S
H823        C828   1.081       .  S
O824       Mg832   2.158       .  S
O824        C827   1.236       .  S
H825        C827   1.081       .  S
H826        C829   1.081       .  S
O831       Mg838   2.289       .  S
C834        O839   1.270       .  A
C834       C1354   1.455       .  S
O835        C836   1.271       .  A
C836       C1581   1.474       .  S
Mg838      O2392   2.283   1_455  S
O840      Mg2395   2.270       .  S
C841       C1582   1.480       .  S
C841        C842   1.421       .  A
C841        C846   1.406       .  A
C842       C1565   1.502       .  S
C842        C843   1.408       .  A
C843        H848   1.083       .  S
C843        C844   1.413       .  A
C844       C1561   1.490       .  S
C844        C845   1.415       .  A
C845       C1558   1.496       .  S
C845        C846   1.403       .  A
C846        H847   1.085       .  S
C849       C1554   1.495       .  S
C849        C850   1.422       .  A
C849        C854   1.407       .  A
C850       C1577   1.496       .  S
C850        C851   1.408       .  A
C851        H856   1.082       .  S
C851        C852   1.409       .  A
C852       C1545   1.488       .  S
C852        C853   1.417       .  A
C853       C1549   1.495       .  S
C853        C854   1.406       .  A
C854        H855   1.085       .  S
O857       Mg859   2.175       .  S
O857       Mg865   2.189       .  S
O857        C892   1.233       .  S
C858        O871   1.230       .  S
C858        O895   1.263       .  A
C858        H897   1.081       .  S
Mg859       O888   2.181       .  S
Mg859      O2487   2.240       .  S
Mg859       O899   2.254       .  S
Mg859       O870   2.283       .  S
O860       Mg902   2.191       .  S
O860       Mg885   2.150       .  S
O860        C881   1.235       .  S
O861        C892   1.268       .  A
O861       Mg885   2.303       .  S
C862        O864   1.279       .  A
C862        O876   1.271       .  A
C862       C1537   1.479       .  S
O863        C891   1.270       .  A
O863       Mg865   2.300       .  S
O864       Mg896   2.313       .  S
Mg865       O871   2.123       .  S
Mg865      O2463   2.252   1_455  S
Mg865       O867   2.308       .  S
C866        O904   1.267       .  A
C866        O872   1.264       .  A
C866       C1361   1.452       .  S
O867        C874   1.277       .  A
H868        C881   1.081       .  S
C869        O883   1.232       .  S
C869        O884   1.266       .  A
C869        H894   1.080       .  S
O870        C893   1.264       .  A
O871       Mg885   2.164       .  S
C873        O878   1.278   1_545  A
C874        O901   1.276       .  A
C874       C3125   1.482   1_455  S
Mg875       O882   2.129       .  S
Mg875       O883   2.179       .  S
Mg875       O876   2.254       .  S
Mg875       O877   2.285       .  S
O877        C881   1.268       .  A
O878       Mg885   2.320       .  S
O879        C898   1.268       .  A
O879      Mg2449   2.251       .  S
O880        C900   1.279       .  A
O880       Mg896   2.329       .  S
O882       Mg896   2.168       .  S
O882        C893   1.231       .  S
O883       Mg902   2.147       .  S
O884       Mg896   2.292       .  S
Mg885       O901   2.288       .  S
H887        C892   1.081       .  S
O888       Mg896   2.170       .  S
O888        C891   1.235       .  S
H889        C891   1.081       .  S
H890        C893   1.081       .  S
O895       Mg902   2.276       .  S
C898        O903   1.263       .  A
C898       C1388   1.444       .  S
O899        C900   1.271       .  A
C900       C1533   1.481       .  S
O903      Mg2443   2.226       .  S
O905       Mg907   2.167       .  S
O905       Mg913   2.140       .  S
O905        C940   1.235       .  S
C906        O919   1.235       .  S
C906        O943   1.270       .  A
C906        H945   1.081       .  S
Mg907       O936   2.163       .  S
Mg907       O951   2.284       .  S
Mg907       O947   2.275       .  S
Mg907       O918   2.280       .  S
O908       Mg950   2.138       .  S
O908       Mg933   2.147       .  S
O908        C929   1.238       .  S
O909        C940   1.271       .  A
O909       Mg933   2.310       .  S
C910        O912   1.278   1_545  A
O911        C939   1.274       .  A
O911       Mg913   2.312       .  S
O912       Mg944   2.328       .  S
Mg913       O919   2.142       .  S
Mg913       O927   2.248       .  S
Mg913       O915   2.286       .  S
C914        O952   1.259       .  A
C914        O920   1.269       .  A
C914       C1362   1.447       .  S
O915        C922   1.272       .  A
H916        C929   1.081       .  S
C917        O931   1.235       .  S
C917        O932   1.271       .  A
C917        H942   1.081   1_565  S
O918        C941   1.266       .  A
O919       Mg933   2.154       .  S
C921        O934   1.274       .  A
C921        O926   1.276       .  A
C921       C1522   1.482       .  S
C922        O949   1.272       .  A
C922       C1526   1.480       .  S
Mg923       O930   2.120       .  S
Mg923       O931   2.147       .  S
Mg923       O925   2.313       .  S
O925        C929   1.273       .  A
O926       Mg933   2.329       .  S
O927        C946   1.264       .  A
O928        C948   1.281       .  A
O928       Mg944   2.352       .  S
O930       Mg944   2.172       .  S
O930        C941   1.233       .  S
O931       Mg950   2.176       .  S
O932       Mg944   2.311       .  S
Mg933       O949   2.285       .  S
O934       Mg950   2.287       .  S
H935        C940   1.081       .  S
O936       Mg944   2.153       .  S
O936        C939   1.239       .  S
H937        C939   1.081       .  S
H938        C941   1.081       .  S
O943       Mg950   2.305       .  S
C946        O951   1.271       .  A
C946       C1350   1.451       .  S
O947        C948   1.274       .  A
C948       C1529   1.483       .  S
C953       C1542   1.487       .  S
C953        C954   1.418       .  A
C953        C958   1.407       .  A
C954       C1530   1.499       .  S
C954        C955   1.407       .  A
C955        H960   1.084       .  S
C955        C956   1.406       .  A
C956       C1517   1.477       .  S
C956        C957   1.421       .  A
C957       C1513   1.501       .  S
C957        C958   1.407       .  A
C958        H959   1.085       .  S
O961       Mg963   2.139   1_556  S
O961        C996   1.234       .  S
C962        O975   1.236       .  S
C962        O999   1.271       .  A
C962       H1001   1.081       .  S
Mg963       O974   2.297       .  S
O964       Mg989   2.168       .  S
O964        C985   1.239   1_556  S
O965        C996   1.267       .  A
O965       Mg989   2.288       .  S
C966        O968   1.278       .  A
C966        O980   1.271       .  A
C966       C1550   1.479       .  S
O967        C995   1.271   1_556  A
O967       Mg969   2.307       .  S
O968      Mg1000   2.321       .  S
Mg969       O975   2.139       .  S
Mg969       O983   2.254       .  S
C970       O1008   1.268       .  A
C970        O976   1.273   1_554  A
O971        C978   1.274       .  A
H972        C985   1.080   1_556  S
C973        O987   1.235       .  S
C973        O988   1.271       .  A
C973        H998   1.081   1_554  S
O974        C997   1.271       .  A
C977        O990   1.272       .  A
C977        O982   1.274       .  A
C977       C1510   1.471       .  S
C978       O1005   1.275       .  A
C978       C1506   1.487       .  S
Mg979       O986   2.151       .  S
Mg979       O981   2.326       .  S
Mg979      O1008   2.265       .  S
O981        C985   1.276       .  A
O982       Mg989   2.305       .  S
O983       C1002   1.268       .  A
O984       C1004   1.280       .  A
O984      Mg1000   2.337       .  S
O986        C997   1.237       .  S
O987      Mg1006   2.159   1_554  S
O988      Mg1000   2.310       .  S
Mg989      O1005   2.303       .  S
H991        C996   1.081   1_554  S
O992      Mg1000   2.155       .  S
O992        C995   1.236       .  S
H993        C995   1.081       .  S
H994        C997   1.081       .  S
O999      Mg1006   2.305       .  S
C1002      O1007   1.274   1_556  A
C1002      C1306   1.463       .  S
O1003      C1004   1.267       .  A
C1004      C1562   1.470       .  S
O1009     Mg1011   2.170   1_556  S
O1009     Mg1017   2.151       .  S
O1009      C1044   1.235       .  S
C1010      O1023   1.236       .  S
C1010      O1047   1.271       .  A
C1010      H1049   1.081       .  S
Mg1011     O1040   2.151       .  S
Mg1011     O1055   2.327       .  S
Mg1011     O1051   2.287       .  S
Mg1011     O1022   2.299       .  S
O1012     Mg1054   2.137       .  S
O1012     Mg1037   2.159       .  S
O1012      C1033   1.238       .  S
O1013      C1044   1.269       .  A
O1013     Mg1037   2.300       .  S
C1014      O1016   1.275       .  A
C1014      O1028   1.270       .  A
C1014      C1557   1.480       .  S
O1015      C1043   1.273       .  A
O1015     Mg1017   2.314       .  S
O1016     Mg1048   2.313       .  S
Mg1017     O1023   2.137       .  S
Mg1017     O1031   2.230       .  S
Mg1017     O1019   2.300       .  S
C1018      O1056   1.264       .  A
C1018      O1024   1.272   1_554  A
C1018      C1313   1.461       .  S
O1019      C1026   1.273       .  A
H1020      C1033   1.081       .  S
C1021      O1035   1.235       .  S
C1021      O1036   1.270       .  A
C1021      H1046   1.081   1_554  S
O1022      C1045   1.271       .  A
O1023     Mg1037   2.171       .  S
O1024     Mg1054   2.324       .  S
C1025      O1038   1.270       .  A
C1025      O1030   1.275       .  A
C1025      C1501   1.469       .  S
C1026      O1053   1.274       .  A
C1026      C1497   1.486       .  S
Mg1027     O1034   2.134       .  S
Mg1027     O1035   2.129       .  S
Mg1027     O1028   2.292       .  S
Mg1027     O1029   2.318       .  S
Mg1027     O1056   2.230       .  S
O1029      C1033   1.274   1_554  A
O1030     Mg1037   2.318       .  S
O1031      C1050   1.265       .  A
O1032      C1052   1.273       .  A
O1032     Mg1048   2.292       .  S
O1034     Mg1048   2.158       .  S
O1034      C1045   1.236       .  S
O1035     Mg1054   2.148   1_554  S
O1036     Mg1048   2.304       .  S
Mg1037     O1053   2.296       .  S
O1038     Mg1054   2.236       .  S
H1039      C1044   1.081   1_554  S
O1040     Mg1048   2.163       .  S
O1040      C1043   1.236   1_554  S
H1041      C1043   1.081   1_554  S
H1042      C1045   1.081       .  S
O1047     Mg1054   2.305       .  S
C1050      O1055   1.276   1_556  A
C1050      C1340   1.459       .  S
O1051      C1052   1.276       .  A
C1052      C1518   1.478       .  S
O1057     Mg1059   2.143   1_556  S
O1057     Mg2649   2.149       .  S
O1057      C1092   1.232       .  S
C1058      O1071   1.235       .  S
C1058      O1095   1.269       .  A
C1058      H1097   1.081       .  S
Mg1059     O2672   2.142       .  S
Mg1059     O1103   2.257       .  S
Mg1059     O1099   2.233       .  S
Mg1059     O1070   2.293       .  S
O1060     Mg2686   2.131       .  S
O1060     Mg2669   2.144       .  S
O1060      C1081   1.239       .  S
O1061      C1092   1.265       .  A
O1061     Mg2669   2.287       .  S
C1062      O1064   1.275       .  A
C1062      O1076   1.275       .  A
C1062      C1546   1.467       .  S
O1063      C1091   1.273       .  A
O1063     Mg1065   2.313   1_554  S
O1064     Mg1096   2.287       .  S
Mg1065     O2641   2.155   1_455  S
Mg1065     O1071   2.139       .  S
Mg1065     O1079   2.258       .  S
Mg1065     O1067   2.314       .  S
C1066      O1104   1.270   1_556  A
C1066      O2656   1.263       .  A
C1066      C2898   1.459       .  S
O1067      C1074   1.277       .  A
H1068      C1081   1.082       .  S
C1069      O1083   1.234       .  S
C1069      O1084   1.269       .  A
C1069      H1094   1.081       .  S
O1070      C1093   1.270       .  A
O1071     Mg1085   2.171       .  S
O1072      C2650   1.263       .  A
O1072     Mg1102   2.251   1_655  S
C1073      O1086   1.267       .  A
C1073      O1078   1.275       .  A
C1073      C1493   1.474       .  S
C1074      O1101   1.268       .  A
C1074      C1489   1.465       .  S
Mg1075     O1082   2.150       .  S
Mg1075     O2667   2.142       .  S
Mg1075     O1076   2.304       .  S
Mg1075     O1077   2.320   1_554  S
Mg1075     O1104   2.277       .  S
O1077      C1081   1.275       .  A
O1078     Mg1085   2.332       .  S
O1079      C1098   1.270   1_556  A
O1080      C1100   1.280       .  A
O1080     Mg1096   2.355       .  S
O1082     Mg1096   2.179       .  S
O1082      C1093   1.237       .  S
O1083     Mg2659   2.146   1_455  S
O1083     Mg1102   2.150   1_554  S
O1084     Mg2680   2.307   1_455  S
Mg1085     O2644   2.120   1_455  S
Mg1085     O2645   2.298   1_455  S
Mg1085     O1101   2.226       .  S
O1086     Mg1102   2.234       .  S
H1087      C1092   1.081       .  S
O1088     Mg2643   2.133       .  S
O1088     Mg2680   2.142       .  S
O1088      C1091   1.237   1_655  S
H1089      C1091   1.082       .  S
H1090      C1093   1.081       .  S
O1095     Mg1102   2.294       .  S
Mg1096     O2672   2.143       .  S
Mg1096     O2668   2.310       .  S
C1098      O2687   1.265       .  A
C1098      C1302   1.454       .  S
O1099      C1100   1.266       .  A
C1100      C1514   1.484       .  S
Mg1102     O2644   2.129   1_455  S
O1103      C2682   1.266       .  A
O1105     Mg1107   2.151       .  S
O1105     Mg1113   2.141       .  S
O1105      C1140   1.232       .  S
C1106      O1143   1.265       .  A
C1106      H1145   1.083       .  S
C1106      O1119   1.263       .  A
Mg1107     O1136   2.160       .  S
Mg1107     O1147   2.214       .  S
Mg1107     O1118   2.286       .  S
O1108     Mg1150   2.172       .  S
O1108     Mg1133   2.134       .  S
O1108      C1129   1.237       .  S
O1109      C1140   1.265       .  A
O1109     Mg1133   2.288       .  S
C1110      O1112   1.277       .  A
C1110      O1124   1.277       .  A
C1110      C1485   1.481       .  S
O1111      C1139   1.275       .  A
O1111     Mg1113   2.325       .  S
O1112     Mg1144   2.290       .  S
Mg1113     O1119   2.185       .  S
C1114      O1152   1.271       .  A
C1114      O1120   1.262       .  A
C1114      C1398   1.443       .  S
H1116      C1129   1.081       .  S
C1117      O1131   1.231       .  S
C1117      O1132   1.265       .  A
C1117      H1142   1.081       .  S
O1118      C1141   1.269       .  A
O1119     Mg1133   2.253       .  S
O1120     Mg1150   2.253       .  S
C1121      O1134   1.263       .  A
C1121      O1126   1.272       .  A
C1121      C1477   1.457       .  S
C1122      O1149   1.275       .  A
Mg1123     O1130   2.134       .  S
Mg1123     O1131   2.130       .  S
Mg1123     O1124   2.315       .  S
Mg1123     O1125   2.302       .  S
Mg1123     O1152   2.255       .  S
O1125      C1129   1.271       .  A
O1126     Mg1133   2.287       .  S
O1127      C1146   1.272       .  A
O1128      C1148   1.274       .  A
O1128     Mg1144   2.309       .  S
O1130     Mg1144   2.171       .  S
O1130      C1141   1.236       .  S
O1131     Mg1150   2.142       .  S
O1132     Mg1144   2.295       .  S
Mg1133     O1149   2.262       .  S
O1134     Mg1150   2.212       .  S
H1135      C1140   1.081       .  S
O1136     Mg1144   2.166       .  S
O1136      C1139   1.238       .  S
H1137      C1139   1.081       .  S
H1138      C1141   1.081       .  S
O1143     Mg1150   2.279       .  S
C1146      O1151   1.266       .  A
C1146      C1410   1.450       .  S
O1147      C1148   1.263       .  A
C1148      C1482   1.463       .  S
C1153      C1494   1.480       .  S
C1153      C1154   1.407       .  A
C1153      C1158   1.403       .  A
C1154      C1502   1.478       .  S
C1154      C1155   1.398       .  A
C1155      H1160   1.083       .  S
C1155      C1156   1.408       .  A
C1156      C1478   1.485       .  S
C1156      C1157   1.417       .  A
C1157      C1469   1.489       .  S
C1157      C1158   1.406       .  A
C1158      H1159   1.085       .  S
C1161      C1490   1.480       .  S
C1161      C1162   1.410       .  A
C1161      C1166   1.408       .  A
C1162      C1505   1.487       .  S
C1162      C1163   1.402       .  A
C1163      H1168   1.085       .  S
C1163      C1164   1.407       .  A
C1164      C1473   1.487       .  S
C1164      C1165   1.418       .  A
C1165      C1465   1.490       .  S
C1165      C1166   1.404       .  A
C1166      H1167   1.083       .  S
O1169     Mg1171   2.174       .  S
O1169     Mg1177   2.134       .  S
O1169      C1204   1.233       .  S
C1170      O1183   1.236       .  S
C1170      O1207   1.270       .  A
C1170      H1209   1.081       .  S
Mg1171     O1200   2.145       .  S
Mg1171     O2799   2.282       .  S
Mg1171     O1211   2.233       .  S
Mg1171     O1182   2.292       .  S
O1172     Mg1214   2.133       .  S
O1172     Mg1197   2.144       .  S
O1172      C1193   1.238       .  S
O1173      C1204   1.269       .  A
O1173     Mg1197   2.307       .  S
C1174      O1176   1.274       .  A
C1174      O1188   1.278       .  A
C1174      C1457   1.484       .  S
O1175      C1203   1.274       .  A
O1175     Mg1177   2.322       .  S
O1176     Mg1208   2.280       .  S
Mg1177     O1183   2.133       .  S
Mg1177     O2775   2.236       .  S
Mg1177     O2763   2.347       .  S
C1178      O1216   1.269       .  A
C1178      O1184   1.262       .  A
C1178      C1409   1.444       .  S
O1179      C2770   1.279       .  A
O1179     Mg2761   2.341   1_455  S
H1180      C1193   1.081       .  S
C1181      O1195   1.233       .  S
C1181      O1196   1.269       .  A
C1181      H1206   1.081       .  S
O1182      C1205   1.269       .  A
O1183     Mg1197   2.156       .  S
C1185      O1198   1.268       .  A
C1185      O1190   1.274       .  A
C1186      O2763   1.279       .  A
C1186      O1213   1.273       .  A
C1186      C3054   1.487       .  S
Mg1187     O1194   2.126       .  S
Mg1187     O1195   2.132       .  S
Mg1187     O1188   2.337       .  S
Mg1187     O1189   2.321       .  S
O1189      C1193   1.275       .  A
O1190     Mg1197   2.327       .  S
O1191      C1210   1.267       .  A
O1191     Mg2761   2.230   1_455  S
O1192      C1212   1.274       .  A
O1192     Mg1208   2.322       .  S
O1194     Mg1208   2.151       .  S
O1194      C1205   1.235       .  S
O1195     Mg1214   2.176       .  S
O1196     Mg1208   2.311       .  S
Mg1197     O1213   2.263       .  S
O1198     Mg1214   2.248       .  S
H1199      C1204   1.081       .  S
O1200     Mg1208   2.160       .  S
O1200      C1203   1.238       .  S
H1201      C1203   1.081       .  S
H1202      C1205   1.081       .  S
O1207     Mg1214   2.296       .  S
C1210      O1215   1.266       .  A
C1210      C1436   1.452       .  S
O1211      C1212   1.268       .  A
C1212      C1462   1.474       .  S
O1215     Mg2755   2.290   1_455  S
O1217     Mg1219   2.158       .  S
O1217     Mg1225   2.183       .  S
O1217      C1252   1.236       .  S
C1218      O1231   1.232       .  S
C1218      O1255   1.266       .  A
C1218      H1257   1.081       .  S
Mg1219     O1248   2.161       .  S
Mg1219     O2847   2.251       .  S
Mg1219     O1259   2.286       .  S
Mg1219     O1230   2.292       .  S
O1220     Mg1262   2.161       .  S
O1220     Mg1245   2.150       .  S
O1220      C1241   1.236       .  S
O1221      C1252   1.270       .  A
O1221     Mg1245   2.304       .  S
C1222      O1224   1.274       .  A
C1222      O1236   1.274       .  A
C1222      C1445   1.479       .  S
O1223      C1251   1.269       .  A
O1223     Mg1225   2.295       .  S
O1224     Mg1256   2.287       .  S
Mg1225     O1231   2.121       .  S
Mg1225     O2823   2.237       .  S
Mg1225     O1227   2.252       .  S
C1226      O1264   1.269       .  A
C1226      O1232   1.271       .  A
C1226      C1402   1.459       .  S
O1227      C1234   1.269       .  A
H1228      C1241   1.081       .  S
C1229      O1243   1.235       .  S
C1229      O1244   1.270       .  A
C1229      H1254   1.081       .  S
O1230      C1253   1.266       .  A
O1231     Mg1245   2.156       .  S
O1232     Mg1262   2.257       .  S
C1233      O1246   1.276       .  A
C1233      O1238   1.276       .  A
C1233      C1442   1.479       .  S
C1234      O1261   1.273       .  A
C1234      C3050   1.478       .  S
Mg1235     O1242   2.138       .  S
Mg1235     O1243   2.183       .  S
Mg1235     O1236   2.284       .  S
Mg1235     O1237   2.296       .  S
Mg1235     O1264   2.269       .  S
O1237      C1241   1.270       .  A
O1238     Mg1245   2.320       .  S
O1239      C1258   1.264       .  A
O1239     Mg2809   2.233   1_455  S
O1240      C1260   1.278       .  A
O1240     Mg1256   2.334       .  S
O1242     Mg1256   2.160       .  S
O1242      C1253   1.232       .  S
O1243     Mg1262   2.166       .  S
O1244     Mg1256   2.302       .  S
Mg1245     O1261   2.296       .  S
O1246     Mg1262   2.296       .  S
H1247      C1252   1.081       .  S
O1248     Mg1256   2.149       .  S
O1248      C1251   1.235       .  S
H1249      C1251   1.081       .  S
H1250      C1253   1.081       .  S
O1255     Mg1262   2.290       .  S
C1258      O1263   1.269       .  A
C1258      C1434   1.448       .  S
O1259      C1260   1.274       .  A
C1260      C1450   1.481       .  S
O1263     Mg2803   2.244   1_455  S
C1265      C1498   1.489       .  S
C1265      C1266   1.413       .  A
C1265      C1270   1.406       .  A
C1266      C1509   1.481       .  S
C1266      C1267   1.407       .  A
C1267      H1272   1.084       .  S
C1267      C1268   1.405       .  A
C1268      C1453   1.483       .  S
C1268      C1269   1.415       .  A
C1269      C1441   1.489       .  S
C1269      C1270   1.407       .  A
C1270      H1271   1.084       .  S
C1273      C1534   1.506       .  S
C1273      C1274   1.421       .  A
C1273      C1278   1.412       .  A
C1274      C1570   1.473       .  S
C1274      C1275   1.401   1_455  A
C1275      H1280   1.084       .  S
C1275      C2860   1.400       .  A
C1276      C1461   1.483       .  S
C1276      C2859   1.401       .  A
C1276      C1277   1.413       .  A
C1277      C1449   1.494       .  S
C1277      C2862   1.410       .  A
C1278      H1279   1.084       .  S
C1278      C2861   1.411       .  A
C1281      C1525   1.479       .  S
C1281      C1282   1.411       .  A
C1281      C1286   1.404       .  A
C1282      C1574   1.490       .  S
C1282      C1283   1.406       .  A
C1283      H1288   1.084       .  S
C1283      C1284   1.407       .  A
C1284      C1486   1.489       .  S
C1284      C1285   1.419       .  A
C1285      C1446   1.487       .  S
C1285      C1286   1.406       .  A
C1286      H1287   1.084       .  S
C1289      C1538   1.488   1_545  S
C1289      C1290   1.418       .  A
C1290      C1521   1.492   1_545  S
C1291      H1296   1.084       .  S
C1291      C1292   1.409       .  A
C1292      C1458   1.490       .  S
C1292      C1293   1.417       .  A
C1293      C1481   1.491       .  S
C1293      C1294   1.405       .  A
C1294      H1295   1.081       .  S
O1297     Mg1305   2.171   1_556  S
O1297      C1332   1.235       .  S
C1298      O1311   1.233       .  S
C1298      O1335   1.266       .  A
C1298      H1337   1.081       .  S
Mg1299     O1328   2.170   1_556  S
Mg1299     O1343   2.323   1_556  S
Mg1299     O1339   2.245       .  S
Mg1299     O1310   2.287       .  S
O1300     Mg1342   2.171   1_556  S
O1300     Mg1325   2.135       .  S
O1300      C1321   1.232       .  S
O1301      C2916   1.268       .  A
O1301     Mg1325   2.285   1_655  S
C1302      O2888   1.272   1_455  A
C1302      O1316   1.269       .  A
O1303     Mg1305   2.279       .  S
O1304      C2886   1.270       .  A
O1304     Mg1336   2.226       .  S
Mg1305     O2895   2.153       .  S
Mg1305     O1319   2.258       .  S
Mg1305     O1307   2.278       .  S
C1306      O1312   1.276       .  A
O1307      C2898   1.270   1_554  A
H1308      C1321   1.081       .  S
C1309      O1323   1.236       .  S
C1309      O2908   1.269       .  A
C1309      H1334   1.081       .  S
O1310      C1333   1.266       .  A
O1311     Mg2889   2.153   1_455  S
O1311     Mg1325   2.175   1_554  S
O1312     Mg1342   2.321   1_556  S
C1313      O1326   1.271       .  A
C1313      O1318   1.277       .  A
C1314      O2891   1.269       .  A
C1314      O1341   1.272   1_655  A
C1314      C2650   1.447       .  S
Mg1315     O2906   2.154   1_455  S
Mg1315     O1323   2.175   1_556  S
Mg1315     O1316   2.273   1_556  S
Mg1315     O1317   2.277   1_565  S
Mg1315     O1344   2.251       .  S
O1318     Mg1325   2.324   1_554  S
O1319      C1338   1.273       .  A
O1320      C1340   1.273       .  A
O1320     Mg1336   2.304   1_556  S
O1322     Mg2899   2.149       .  S
O1322     Mg1336   2.177   1_556  S
O1322      C1333   1.233       .  S
O1324      C2893   1.267       .  A
O1324     Mg1336   2.282       .  S
Mg1325     O1341   2.239       .  S
O1326     Mg1342   2.233       .  S
H1327      C1332   1.081       .  S
O1328     Mg1336   2.129       .  S
O1328      C1331   1.233       .  S
H1329      C1331   1.081       .  S
H1330      C1333   1.081       .  S
C1332      O2885   1.268       .  A
O1335     Mg1342   2.288       .  S
O1339      C1340   1.273       .  A
O1345     Mg1347   2.139       .  S
O1345     Mg1353   2.132       .  S
O1345      C1380   1.236       .  S
C1346      O1359   1.238       .  S
C1346      O1383   1.276       .  A
C1346      H1385   1.082       .  S
Mg1347     O1376   2.138       .  S
Mg1347     O1391   2.320       .  S
Mg1347     O1387   2.262       .  S
Mg1347     O1358   2.303       .  S
O1348     Mg1390   2.113       .  S
O1348     Mg1373   2.141       .  S
O1348      C1369   1.234       .  S
O1349      C1380   1.272       .  A
O1349     Mg1373   2.312       .  S
C1350      O1352   1.264       .  A
C1350      O1364   1.271       .  A
O1351      C1379   1.270       .  A
O1351     Mg1353   2.310       .  S
O1352     Mg1384   2.242       .  S
Mg1353     O1359   2.141       .  S
Mg1353     O1367   2.263       .  S
Mg1353     O1355   2.298       .  S
C1354      O1392   1.267       .  A
C1354      O1360   1.274       .  A
O1355      C1362   1.271       .  A
H1356      C1369   1.081       .  S
C1357      O1371   1.235       .  S
C1357      O1372   1.269       .  A
C1357      H1382   1.081       .  S
O1358      C1381   1.271       .  A
O1359     Mg1373   2.127       .  S
O1360     Mg1390   2.312       .  S
C1361      O1374   1.268       .  A
C1361      O1366   1.259       .  A
C1362      O1389   1.259       .  A
Mg1363     O1370   2.121       .  S
Mg1363     O1371   2.139       .  S
Mg1363     O1364   2.283       .  S
Mg1363     O1365   2.315       .  S
Mg1363     O1392   2.246       .  S
O1365      C1369   1.270       .  A
O1366     Mg1373   2.253       .  S
O1367      C1386   1.269       .  A
O1368      C1388   1.261       .  A
O1368     Mg1384   2.240       .  S
O1370     Mg1384   2.149       .  S
O1370      C1381   1.236       .  S
O1371     Mg1390   2.134       .  S
O1372     Mg1384   2.296       .  S
Mg1373     O1389   2.221       .  S
O1374     Mg1390   2.275       .  S
H1375      C1380   1.081       .  S
O1376     Mg1384   2.149       .  S
O1376      C1379   1.234       .  S
H1377      C1379   1.081       .  S
H1378      C1381   1.082       .  S
O1383     Mg1390   2.330       .  S
C1386      O1391   1.275       .  A
O1387      C1388   1.271       .  A
O1393     Mg1395   2.129       .  S
O1393     Mg1401   2.174       .  S
O1393      C1428   1.235       .  S
C1394      O1407   1.232       .  S
C1394      O1431   1.267       .  A
C1394      H1433   1.081       .  S
Mg1395     O1424   2.194       .  S
Mg1395     O1439   2.234       .  S
Mg1395     O1435   2.264       .  S
Mg1395     O1406   2.284       .  S
O1396     Mg1438   2.172       .  S
O1396     Mg1421   2.148       .  S
O1396      C1417   1.235       .  S
O1397      C1428   1.270       .  A
O1397     Mg1421   2.306       .  S
C1398      O1400   1.266       .  A
C1398      O1412   1.264       .  A
O1399      C1427   1.267       .  A
O1399     Mg1401   2.289       .  S
O1400     Mg1432   2.257       .  S
Mg1401     O1407   2.128       .  S
Mg1401     O1415   2.242       .  S
Mg1401     O1403   2.246       .  S
C1402      O1440   1.267       .  A
C1402      O1408   1.269       .  A
O1403      C1410   1.265       .  A
H1404      C1417   1.081       .  S
C1405      O1419   1.234       .  S
C1405      O1420   1.269       .  A
C1405      H1430   1.082       .  S
O1406      C1429   1.263       .  A
O1407     Mg1421   2.141       .  S
O1408     Mg1438   2.248       .  S
C1409      O1422   1.266       .  A
C1409      O1414   1.265       .  A
C1410      O1437   1.265       .  A
Mg1411     O1418   2.136       .  S
Mg1411     O1419   2.165       .  S
Mg1411     O1412   2.232       .  S
Mg1411     O1413   2.295       .  S
Mg1411     O1440   2.267       .  S
O1413      C1417   1.269       .  A
O1414     Mg1421   2.241       .  S
O1415      C1434   1.266       .  A
O1416      C1436   1.268       .  A
O1416     Mg1432   2.242       .  S
O1418     Mg1432   2.151       .  S
O1418      C1429   1.230       .  S
O1419     Mg1438   2.114       .  S
O1420     Mg1432   2.302       .  S
Mg1421     O1437   2.262       .  S
O1422     Mg1438   2.246       .  S
H1423      C1428   1.082       .  S
O1424     Mg1432   2.134       .  S
O1424      C1427   1.233       .  S
H1425      C1427   1.081       .  S
H1426      C1429   1.081       .  S
O1431     Mg1438   2.303       .  S
C1434      O1439   1.268       .  A
O1435      C1436   1.270       .  A
C1441      C1442   1.346       .  D
C1441      H1443   1.087       .  S
C1442      H1444   1.087       .  S
C1445      C1446   1.349       .  D
C1445      H1447   1.087       .  S
C1446      H1448   1.083       .  S
C1449      C1450   1.351       .  D
C1449      H3035   1.087       .  S
C1450      H1452   1.086       .  S
H1451      C3033   1.087   1_455  S
C1453      C1454   1.348       .  D
C1453      H1455   1.088       .  S
C1454      H1456   1.086   1_565  S
C1457      C1458   1.348       .  D
C1457      H1459   1.086       .  S
C1458      H1460   1.087       .  S
C1461      C1462   1.347       .  D
C1461      H1463   1.088       .  S
C1462      H1464   1.086       .  S
C1465      C1466   1.354       .  D
C1465      H1467   1.086       .  S
C1466      C2818   1.481   1_455  S
C1466      H3052   1.085   1_455  S
H1468      C3050   1.086       .  S
C1469      C1470   1.348       .  D
C1469      H1471   1.087       .  S
C1470      C2770   1.486       .  S
C1470      H1472   1.087       .  S
C1473      C1474   1.345       .  D
C1473      H1475   1.087       .  S
C1474      H1476   1.087       .  S
C1477      C1478   1.345       .  D
C1477      H1479   1.085       .  S
C1478      H1480   1.087       .  S
C1481      C1482   1.347       .  D
C1481      H1483   1.086       .  S
C1482      H1484   1.085       .  S
C1485      C1486   1.345       .  D
C1485      H1487   1.087       .  S
C1486      H1488   1.087       .  S
C1489      C1490   1.341       .  D
C1489      H1491   1.087       .  S
C1490      H1492   1.087       .  S
C1493      C1494   1.348       .  D
C1493      H1495   1.086       .  S
C1494      H1496   1.088       .  S
C1497      C1498   1.350       .  D
C1497      H1499   1.086       .  S
C1498      H1500   1.086       .  S
C1501      C1502   1.343       .  D
C1501      H1503   1.087       .  S
C1502      H1504   1.087       .  S
C1505      C1506   1.350       .  D
C1505      H1507   1.086       .  S
C1506      H1508   1.086       .  S
C1509      C1510   1.343       .  D
C1509      H1511   1.087       .  S
C1510      H1512   1.087       .  S
C1513      C1514   1.345       .  D
C1513      H1515   1.087       .  S
C1514      H1516   1.084       .  S
C1517      C1518   1.339       .  D
C1517      H1519   1.086       .  S
C1518      H1520   1.087       .  S
C1521      C1522   1.348       .  D
C1522      H1524   1.086       .  S
C1525      C1526   1.346       .  D
C1525      H1527   1.086       .  S
C1526      H1528   1.086       .  S
C1529      C1530   1.350       .  D
C1529      H1531   1.086       .  S
C1530      H1532   1.086       .  S
C1533      C1534   1.351       .  D
C1533      H1535   1.083       .  S
C1534      H1536   1.087       .  S
C1537      C1538   1.356       .  D
C1537      H1539   1.086       .  S
C1538      H1540   1.085       .  S
C1541      C2458   1.479       .  S
C1541      C1542   1.353       .  D
C1541      H3127   1.086       .  S
C1542      H1544   1.087       .  S
H1543      C3125   1.086   1_455  S
C1545      C1546   1.345       .  D
C1545      H1547   1.086       .  S
C1546      H1548   1.086       .  S
C1549      C1550   1.343       .  D
C1549      H1551   1.087       .  S
C1550      H1552   1.086       .  S
C1553      C1554   1.338       .  D
C1553      H1555   1.087       .  S
C1554      H1556   1.087       .  S
C1557      C1558   1.346       .  D
C1557      H1559   1.087       .  S
C1558      H1560   1.087       .  S
C1561      C1562   1.342       .  D
C1561      H1563   1.087       .  S
C1562      H1564   1.086       .  S
C1565      C1566   1.346       .  D
C1565      H1567   1.086       .  S
C1566      H1568   1.082       .  S
C1569      C1570   1.341       .  D
C1569      H1571   1.086       .  S
C1570      H1572   1.088       .  S
C1573      C1574   1.347       .  D
C1573      H1575   1.086       .  S
C1574      H1576   1.086       .  S
C1577      C1578   1.346       .  D
C1577      H1579   1.079       .  S
C1578      C2382   1.475       .  S
C1578      H3164   1.085       .  S
H1580      C3162   1.085       .  S
C1581      C1582   1.345       .  D
C1581      H1583   1.086       .  S
C1582      H1584   1.088       .  S
O1585     Mg1587   2.152       .  S
O1585     Mg1593   2.175       .  S
O1585      C1620   1.235       .  S
C1586      O1599   1.234       .  S
C1586      O1623   1.268       .  A
C1586      H1625   1.081       .  S
Mg1587     O1616   2.156       .  S
Mg1587     O1631   2.275       .  S
Mg1587     O1627   2.241       .  S
Mg1587     O1598   2.291       .  S
O1588     Mg1630   2.152       .  S
O1588     Mg1613   2.144       .  S
O1588      C1609   1.234       .  S
O1589      C1620   1.269       .  A
O1589     Mg1613   2.293       .  S
C1590      O1592   1.272       .  A
C1590      O1604   1.276       .  A
O1591      C1619   1.269       .  A
O1591     Mg1593   2.301       .  S
O1592     Mg1624   2.272       .  S
Mg1593     O1599   2.128       .  S
Mg1593     O1607   2.255       .  S
Mg1593     O1595   2.333       .  S
C1594      O1632   1.270       .  A
C1594      O1600   1.271       .  A
C1594      C2178   1.458       .  S
O1595      C1602   1.279       .  A
H1596      C1609   1.081       .  S
C1597      O1611   1.234       .  S
C1597      O1612   1.268       .  A
C1597      H1622   1.081       .  S
O1598      C1621   1.267       .  A
O1599     Mg1613   2.156       .  S
C1601      O1614   1.271       .  A
C1601      O1606   1.271       .  A
C1601      C2361   1.466       .  S
C1602      O1629   1.269       .  A
C1602      C2365   1.480       .  S
Mg1603     O1610   2.131       .  S
Mg1603     O1611   2.176       .  S
Mg1603     O1604   2.301       .  S
Mg1603     O1605   2.290       .  S
O1605      C1609   1.268       .  A
O1606     Mg1613   2.294       .  S
O1607      C1626   1.272       .  A
O1608      C1628   1.273       .  A
O1608     Mg1624   2.312       .  S
O1610     Mg1624   2.163       .  S
O1610      C1621   1.234       .  S
O1611     Mg1630   2.147       .  S
O1612     Mg1624   2.293       .  S
Mg1613     O1629   2.249       .  S
O1614     Mg1630   2.252       .  S
H1615      C1620   1.081       .  S
O1616     Mg1624   2.160       .  S
O1616      C1619   1.235       .  S
H1617      C1619   1.081       .  S
H1618      C1621   1.081       .  S
O1623     Mg1630   2.293       .  S
C1626      O1631   1.270       .  A
C1626      C2146   1.456       .  S
O1627      C1628   1.270       .  A
C1628      C2373   1.472       .  S
C1633      C2374   1.479       .  S
C1633      C1634   1.422       .  A
C1633      C1638   1.404       .  A
C1634      C2357   1.502       .  S
C1634      C1635   1.410       .  A
C1635      H1640   1.083       .  S
C1635      C1636   1.412       .  A
C1636      C2353   1.490       .  S
C1636      C1637   1.415       .  A
C1637      C2350   1.492       .  S
C1637      C1638   1.400       .  A
C1638      H1639   1.085       .  S
C1641      C2346   1.484       .  S
C1641      C1642   1.409       .  A
C1641      C1646   1.408       .  A
C1642      C2369   1.481       .  S
C1642      C1643   1.399       .  A
C1643      H1648   1.086       .  S
C1643      C1644   1.401       .  A
C1644      C2337   1.474       .  S
C1644      C1645   1.421       .  A
C1645      C2341   1.498       .  S
C1645      C1646   1.411       .  A
C1646      H1647   1.085       .  S
O1649     Mg1651   2.171       .  S
O1649     Mg1657   2.181       .  S
O1649      C1684   1.233       .  S
C1650      O1663   1.230       .  S
C1650      O1687   1.262       .  A
C1650      H1689   1.081       .  S
Mg1651     O1680   2.186       .  S
Mg1651     O1691   2.245       .  S
Mg1651     O1662   2.279       .  S
O1652     Mg1694   2.193       .  S
O1652     Mg1677   2.147       .  S
O1652      C1673   1.235       .  S
O1653      C1684   1.269       .  A
O1653     Mg1677   2.306       .  S
C1654      O1656   1.278       .  A
C1654      O1668   1.271       .  A
C1654      C2329   1.479       .  S
O1655      C1683   1.270       .  A
O1655     Mg1657   2.299       .  S
O1656     Mg1688   2.313       .  S
Mg1657     O1663   2.120       .  S
Mg1657     O1659   2.283       .  S
C1658      O1696   1.266       .  A
C1658      O1664   1.263       .  A
C1658      C2153   1.446       .  S
O1659      C1666   1.274       .  A
H1660      C1673   1.081       .  S
C1661      O1675   1.232       .  S
C1661      O1676   1.266       .  A
C1661      H1686   1.081       .  S
O1662      C1685   1.262       .  A
O1663     Mg1677   2.160       .  S
O1664     Mg2486   2.233   1_545  S
C1665      O2470   1.268       .  A
C1665      O1670   1.280       .  A
C1665      C3150   1.475       .  S
C1666      O1693   1.276       .  A
Mg1667     O1674   2.120       .  S
Mg1667     O1675   2.181       .  S
Mg1667     O1668   2.255       .  S
Mg1667     O1669   2.283       .  S
Mg1667     O2488   2.242       .  S
O1669      C1673   1.268       .  A
O1670     Mg1677   2.335       .  S
O1671      C1690   1.268       .  A
O1672      C1692   1.278       .  A
O1672     Mg1688   2.329       .  S
O1674     Mg1688   2.161       .  S
O1674      C1685   1.230       .  S
O1675     Mg1694   2.149       .  S
O1676     Mg1688   2.295       .  S
Mg1677     O1693   2.293       .  S
O1678      C2457   1.267       .  A
O1678     Mg2486   2.220   1_545  S
H1679      C1684   1.081       .  S
O1680     Mg1688   2.168       .  S
O1680      C1683   1.236       .  S
H1681      C1683   1.081       .  S
H1682      C1685   1.081       .  S
O1687     Mg1694   2.276       .  S
C1690      O1695   1.263   1_655  A
C1690      C2180   1.444       .  S
O1691      C1692   1.271       .  A
C1692      C2325   1.478       .  S
Mg1694     O2456   2.235       .  S
Mg1694     O2470   2.223       .  S
O1696     Mg2459   2.238   1_545  S
O1697     Mg1699   2.154       .  S
O1697     Mg1705   2.138       .  S
O1697      C1732   1.235       .  S
C1698      O1711   1.235       .  S
C1698      O1735   1.269       .  A
C1698      H1737   1.081       .  S
Mg1699     O1728   2.157       .  S
Mg1699     O1743   2.287       .  S
Mg1699     O1739   2.250       .  S
Mg1699     O1710   2.286       .  S
O1700     Mg1742   2.134       .  S
O1700     Mg1725   2.137       .  S
O1700      C1721   1.238       .  S
O1701      C1732   1.270       .  A
O1701     Mg1725   2.305       .  S
C1702      O1704   1.278       .  A
C1702      O2508   1.269       .  A
C1702      C3137   1.488       .  S
O1703      C1731   1.273       .  A
O1703     Mg1705   2.310       .  S
O1704     Mg1736   2.325       .  S
Mg1705     O1711   2.130       .  S
Mg1705     O1719   2.238       .  S
Mg1705     O1707   2.257       .  S
C1706      O1744   1.264       .  A
C1706      O1712   1.269       .  A
C1706      C2154   1.453       .  S
O1707      C1714   1.269       .  A
H1708      C1721   1.081       .  S
C1709      O1723   1.235       .  S
C1709      O1724   1.271       .  A
C1709      H1734   1.081       .  S
O1710      C1733   1.267       .  A
O1711     Mg1725   2.164       .  S
O1712     Mg2534   2.288   1_545  S
C1713      O1726   1.275       .  A
C1713      O1718   1.278       .  A
C1713      C2314   1.488       .  S
C1714      O1741   1.273       .  A
C1714      C2318   1.476       .  S
Mg1715     O1722   2.134       .  S
Mg1715     O1723   2.142       .  S
Mg1715     O2508   2.254       .  S
Mg1715     O1717   2.316       .  S
Mg1715     O2536   2.233       .  S
O1716      C2494   1.272       .  A
O1716     Mg2507   2.282       .  S
O1717      C1721   1.274       .  A
O1718     Mg1725   2.339       .  S
O1719      C1738   1.263       .  A
O1720      C1740   1.283       .  A
O1720     Mg1736   2.365       .  S
O1722     Mg1736   2.180       .  S
O1722      C1733   1.234       .  S
O1723     Mg1742   2.184       .  S
O1724     Mg1736   2.315       .  S
Mg1725     O1741   2.286       .  S
O1726     Mg1742   2.297       .  S
H1727      C1732   1.081       .  S
O1728     Mg1736   2.151       .  S
O1728      C1731   1.238       .  S
H1729      C1731   1.081       .  S
H1730      C1733   1.081       .  S
O1735     Mg1742   2.296       .  S
C1738      O1743   1.270       .  A
C1738      C2142   1.449       .  S
O1739      C1740   1.270       .  A
C1740      C2321   1.480       .  S
Mg1742     O2504   2.279       .  S
O1744     Mg2507   2.253   1_545  S
C1745      C2334   1.493       .  S
C1745      C1746   1.422       .  A
C1745      C1750   1.411       .  A
C1746      C2322   1.504       .  S
C1746      C1747   1.410       .  A
C1747      H1752   1.083       .  S
C1747      C1748   1.407       .  A
C1748      C2309   1.488       .  S
C1748      C1749   1.417       .  A
C1749      C2305   1.497       .  S
C1749      C1750   1.409       .  A
C1750      H1751   1.084       .  S
O1753     Mg1755   2.138   1_556  S
O1753     Mg2553   2.139       .  S
O1753      C1788   1.235       .  S
C1754      O1767   1.238   1_545  S
C1754      O1791   1.271       .  A
C1754      H1793   1.081       .  S
Mg1755     O2576   2.150       .  S
Mg1755     O2591   2.329       .  S
Mg1755     O2587   2.236       .  S
Mg1755     O1766   2.300       .  S
O1756     Mg2590   2.136       .  S
O1756     Mg1781   2.165       .  S
O1756      C1777   1.238       .  S
O1757      C1788   1.268       .  A
O1757     Mg1781   2.289       .  S
C1758      O1760   1.278       .  A
C1758      O1772   1.278       .  A
C1758      C2342   1.493       .  S
O1759      C1787   1.275   1_556  A
O1759     Mg1761   2.321       .  S
O1760     Mg1792   2.310       .  S
Mg1761     O2545   2.135   1_545  S
Mg1761     O1767   2.144   1_545  S
Mg1761     O1775   2.270       .  S
Mg1761     O2555   2.306   1_545  S
C1762      O1800   1.268       .  A
C1762      O1768   1.273   1_554  A
C1762      C2922   1.472       .  S
O1763      C1770   1.274       .  A
O1763     Mg2553   2.295       .  S
H1764      C1777   1.081       .  S
C1765      O1779   1.233       .  S
C1765      O1780   1.267       .  A
C1765      H1790   1.081   1_554  S
O1766      C1789   1.272       .  A
O1767     Mg2573   2.188       .  S
O1768     Mg2590   2.330       .  S
C1769      O1782   1.272       .  A
C1769      O1774   1.274       .  A
C1769      C2302   1.470       .  S
C1770      O1797   1.274       .  A
C1770      C2298   1.484       .  S
Mg1771     O1778   2.155       .  S
Mg1771     O2571   2.128       .  S
Mg1771     O2564   2.292       .  S
Mg1771     O1773   2.323       .  S
Mg1771     O1800   2.270       .  S
O1772     Mg2563   2.325   1_545  S
O1773      C1777   1.275   1_554  A
O1774     Mg1781   2.309       .  S
O1775      C1794   1.270       .  A
O1776      C1796   1.279       .  A
O1776     Mg1792   2.331       .  S
O1778     Mg2584   2.172       .  S
O1778      C1789   1.238       .  S
O1779     Mg2563   2.134   1_545  S
O1779     Mg1798   2.148   1_544  S
O1780     Mg1792   2.293       .  S
Mg1781     O2559   2.172       .  S
Mg1781     O1797   2.294       .  S
O1782     Mg2590   2.259       .  S
H1783      C1788   1.081   1_554  S
O1784     Mg2547   2.148   1_545  S
O1784     Mg1792   2.173       .  S
O1784      C1787   1.238       .  S
H1785      C1787   1.081       .  S
H1786      C1789   1.081       .  S
O1791     Mg1798   2.294   1_545  S
Mg1792     O2570   2.186       .  S
C1794      O1799   1.274   1_556  A
C1794      C2098   1.468       .  S
O1795      C1796   1.269       .  A
O1795     Mg2547   2.247   1_545  S
C1796      C2354   1.476       .  S
Mg1798     O2548   2.149       .  S
Mg1798     O2560   2.316       .  S
Mg1798     O2574   2.243       .  S
O1799     Mg2547   2.328   1_545  S
O1801     Mg1803   2.148   1_556  S
O1801     Mg1809   2.138       .  S
O1801      C1836   1.233       .  S
C1802      O1815   1.236       .  S
C1802      O1839   1.271       .  A
C1802      H1841   1.081       .  S
Mg1803     O1832   2.143       .  S
Mg1803     O1847   2.301       .  S
Mg1803     O1843   2.241       .  S
Mg1803     O1814   2.293       .  S
O1804     Mg1846   2.138       .  S
O1804     Mg1829   2.171       .  S
O1804      C1825   1.239       .  S
O1805      C1836   1.267       .  A
O1805     Mg1829   2.291       .  S
C1806      O1808   1.276       .  A
C1806      O1820   1.271       .  A
C1806      C2349   1.476       .  S
O1807      C1835   1.274   1_556  A
O1807     Mg1809   2.316       .  S
O1808     Mg1840   2.306       .  S
Mg1809     O1815   2.130       .  S
Mg1809     O1823   2.232       .  S
Mg1809     O1811   2.293       .  S
C1810      O1848   1.265       .  A
C1810      O1816   1.272   1_554  A
C1810      C2105   1.466       .  S
O1811      C1818   1.273       .  A
H1812      C1825   1.081       .  S
C1813      O1827   1.235       .  S
C1813      O1828   1.270       .  A
C1813      H1838   1.081   1_554  S
O1814      C1837   1.271       .  A
O1815     Mg1829   2.176       .  S
O1816     Mg1846   2.324       .  S
C1817      O1830   1.271       .  A
C1817      O1822   1.275       .  A
C1817      C2293   1.470       .  S
C1818      O1845   1.277       .  A
C1818      C2289   1.491       .  S
Mg1819     O1826   2.139       .  S
Mg1819     O1827   2.126       .  S
Mg1819     O1820   2.288       .  S
Mg1819     O1821   2.325       .  S
Mg1819     O1848   2.252       .  S
O1821      C1825   1.276   1_554  A
O1822     Mg1829   2.317       .  S
O1823      C1842   1.265       .  A
O1824      C1844   1.278       .  A
O1824     Mg1840   2.331       .  S
O1826     Mg1840   2.172       .  S
O1826      C1837   1.237       .  S
O1827     Mg1846   2.157   1_554  S
O1828     Mg1840   2.310       .  S
Mg1829     O1845   2.317       .  S
O1830     Mg1846   2.242       .  S
H1831      C1836   1.081   1_554  S
O1832     Mg1840   2.150       .  S
O1832      C1835   1.238       .  S
H1833      C1835   1.081       .  S
H1834      C1837   1.081       .  S
O1839     Mg1846   2.302       .  S
C1842      O1847   1.270   1_556  A
C1842      C2132   1.450       .  S
O1843      C1844   1.269       .  A
C1844      C2310   1.472       .  S
O1849     Mg1851   2.151   1_556  S
O1849      C1884   1.233       .  S
C1850      O1863   1.236       .  S
C1850      O1887   1.270       .  A
C1850      H1889   1.081       .  S
Mg1851     O1895   2.263   1_655  S
Mg1851     O1891   2.240       .  S
Mg1851     O1862   2.290       .  S
O1852      C1873   1.237       .  S
O1853      C1884   1.267       .  A
C1854      O1856   1.276       .  A
C1854      O1868   1.269       .  A
C1854      C2338   1.470       .  S
O1855      C1883   1.273       .  A
O1855     Mg1857   2.310   1_554  S
O1856     Mg1888   2.286       .  S
Mg1857     O1863   2.138       .  S
Mg1857     O1871   2.270       .  S
Mg1857     O1859   2.301       .  S
C1858      O1896   1.267   1_556  A
O1859      C1866   1.276       .  A
H1860      C1873   1.082       .  S
C1861      O1875   1.233       .  S
C1861      O1876   1.270       .  A
C1861      H1886   1.081       .  S
O1862      C1885   1.268       .  A
O1863     Mg1877   2.175       .  S
O1864     Mg1894   2.237       .  S
C1865      O1878   1.269       .  A
C1865      O1870   1.275       .  A
C1865      C2285   1.480       .  S
C1866      O1893   1.271       .  A
C1866      C2281   1.468       .  S
Mg1867     O1874   2.146       .  S
Mg1867     O1868   2.270       .  S
Mg1867     O1869   2.302   1_554  S
Mg1867     O1896   2.249       .  S
O1869      C1873   1.271       .  A
O1870     Mg1877   2.331       .  S
O1871      C1890   1.270   1_556  A
O1872      C1892   1.279       .  A
O1872     Mg1888   2.342       .  S
O1874     Mg1888   2.182       .  S
O1874      C1885   1.235       .  S
O1875     Mg1894   2.171   1_554  S
Mg1877     O1893   2.244       .  S
O1878     Mg1894   2.259       .  S
H1879      C1884   1.081       .  S
O1880      C1883   1.238       .  S
H1881      C1883   1.082       .  S
H1882      C1885   1.081       .  S
O1887     Mg1894   2.296       .  S
C1890      C2094   1.455       .  S
O1891      C1892   1.267       .  A
C1892      C2306   1.480       .  S
O1897     Mg1899   2.166       .  S
O1897     Mg1905   2.141       .  S
O1897      C1932   1.232       .  S
C1898      O1911   1.236       .  S
C1898      O1935   1.269       .  A
C1898      H1937   1.081       .  S
Mg1899     O1928   2.133       .  S
Mg1899     O2735   2.269       .  S
Mg1899     O1939   2.232       .  S
Mg1899     O1910   2.292       .  S
O1900     Mg1942   2.159       .  S
O1900     Mg1925   2.144       .  S
O1900      C1921   1.236       .  S
O1901      C1932   1.267       .  A
O1901     Mg1925   2.299       .  S
C1902      O1904   1.270       .  A
C1902      O1916   1.280       .  A
C1902      C2277   1.480       .  S
O1903      C1931   1.273       .  A
O1903     Mg1905   2.318       .  S
O1904     Mg1936   2.251       .  S
Mg1905     O1911   2.138       .  S
Mg1905     O2711   2.265   1_545  S
Mg1905     O2699   2.337   1_545  S
C1906      O1944   1.269       .  A
C1906      O1912   1.265       .  A
C1906      C2190   1.439       .  S
O1907      C2706   1.281       .  A
O1907     Mg2697   2.335       .  S
H1908      C1921   1.081       .  S
C1909      O1923   1.232       .  S
C1909      O1924   1.265       .  A
C1909      H1934   1.081       .  S
O1910      C1933   1.270       .  A
O1911     Mg1925   2.183       .  S
O1912     Mg1942   2.271       .  S
C1913      O1926   1.264       .  A
C1913      O1918   1.276       .  A
C1913      C2269   1.466       .  S
C1914      O2699   1.281       .  A
C1914      O1941   1.275   1_565  A
C1914      C3058   1.485       .  S
Mg1915     O1922   2.110       .  S
Mg1915     O1923   2.149       .  S
Mg1915     O1916   2.338       .  S
Mg1915     O1917   2.304       .  S
Mg1915     O1944   2.222       .  S
O1917      C1921   1.271       .  A
O1918     Mg1925   2.319       .  S
O1919      C1938   1.269       .  A
O1919     Mg2697   2.241       .  S
O1920      C1940   1.268       .  A
O1920     Mg1936   2.286       .  S
O1922     Mg1936   2.162       .  S
O1922      C1933   1.236       .  S
O1923     Mg1942   2.149       .  S
O1924     Mg1936   2.286       .  S
Mg1925     O1941   2.275       .  S
O1926     Mg1942   2.220       .  S
H1927      C1932   1.081   1_565  S
O1928     Mg1936   2.147       .  S
O1928      C1931   1.236       .  S
H1929      C1931   1.081       .  S
H1930      C1933   1.081       .  S
O1935     Mg1942   2.285       .  S
C1938      O1943   1.264       .  A
C1938      C2202   1.444       .  S
O1939      C1940   1.267       .  A
C1940      C2274   1.462       .  S
O1943     Mg2691   2.268       .  S
C1945      C2286   1.487       .  S
C1945      C1946   1.409       .  A
C1945      C1950   1.404       .  A
C1946      C2294   1.479       .  S
C1946      C1947   1.403       .  A
C1947      H1952   1.082       .  S
C1947      C1948   1.410       .  A
C1948      C2270   1.493       .  S
C1948      C1949   1.418       .  A
C1949      C2261   1.490       .  S
C1949      C1950   1.408       .  A
C1950      H1951   1.085       .  S
C1953      C2282   1.479       .  S
C1953      C1954   1.411       .  A
C1953      C1958   1.407       .  A
C1954      C2297   1.485       .  S
C1954      C1955   1.402       .  A
C1955      H1960   1.085       .  S
C1955      C1956   1.405       .  A
C1956      C2265   1.487       .  S
C1956      C1957   1.417       .  A
C1957      C2257   1.485       .  S
C1957      C1958   1.404       .  A
C1958      H1959   1.084       .  S
O1961     Mg1963   2.177       .  S
O1961     Mg1969   2.135       .  S
O1961      C1996   1.234       .  S
C1962      O1975   1.235       .  S
C1962      O1999   1.268       .  A
C1962      H2001   1.081       .  S
Mg1963     O1992   2.143       .  S
Mg1963     O2003   2.235       .  S
Mg1963     O1974   2.296       .  S
O1964     Mg2006   2.138       .  S
O1964     Mg1989   2.140       .  S
O1964      C1985   1.238       .  S
O1965      C1996   1.270       .  A
O1965     Mg1989   2.312       .  S
C1966      O1968   1.275       .  A
C1966      O1980   1.273       .  A
C1966      C2249   1.483       .  S
O1967      C1995   1.275       .  A
O1967     Mg1969   2.323       .  S
O1968     Mg2000   2.297       .  S
Mg1969     O1975   2.122       .  S
C1970      O2008   1.269       .  A
C1970      O1976   1.262       .  A
C1970      C2201   1.437       .  S
H1972      C1985   1.081       .  S
C1973      O1987   1.233       .  S
C1973      O1988   1.269       .  A
C1973      H1998   1.081       .  S
O1974      C1997   1.269       .  A
O1975     Mg1989   2.150       .  S
O1976     Mg2798   2.245       .  S
C1977      O1990   1.266       .  A
C1977      O1982   1.275       .  A
C1977      C3038   1.474   1_545  S
C1978      O2005   1.273   1_455  A
Mg1979     O1986   2.127       .  S
Mg1979     O1987   2.127       .  S
Mg1979     O1980   2.308       .  S
Mg1979     O1981   2.317       .  S
Mg1979     O2800   2.224   1_545  S
O1981      C1985   1.274       .  A
O1982     Mg1989   2.332       .  S
O1983      C2002   1.269       .  A
O1984      C2004   1.275       .  A
O1984     Mg2000   2.325       .  S
O1986     Mg2000   2.152       .  S
O1986      C1997   1.235       .  S
O1987     Mg2006   2.167       .  S
O1988     Mg2000   2.309       .  S
Mg1989     O2005   2.266       .  S
O1990     Mg2006   2.223       .  S
H1991      C1996   1.081   1_455  S
O1992     Mg2000   2.162       .  S
O1992      C1995   1.238       .  S
H1993      C1995   1.081       .  S
H1994      C1997   1.081       .  S
O1999     Mg2006   2.289       .  S
C2002      O2007   1.265       .  A
C2002      C2228   1.449       .  S
O2003      C2004   1.268       .  A
C2004      C2254   1.473       .  S
Mg2006     O2768   2.260   1_545  S
O2008     Mg2771   2.242       .  S
O2009     Mg2011   2.171       .  S
O2009     Mg2017   2.185       .  S
O2009      C2044   1.235       .  S
C2010      O2023   1.232       .  S
C2010      O2047   1.265       .  A
C2010      H2049   1.081       .  S
Mg2011     O2040   2.166       .  S
Mg2011     O2051   2.297       .  S
Mg2011     O2022   2.290       .  S
O2012     Mg2054   2.174       .  S
O2012     Mg2037   2.140       .  S
O2012      C2033   1.236       .  S
O2013      C2044   1.270       .  A
O2013     Mg2037   2.306       .  S
C2014      O2016   1.275       .  A
C2014      O2028   1.270       .  A
C2014      C2237   1.477       .  S
O2015      C2043   1.270       .  A
O2015     Mg2017   2.300       .  S
O2016     Mg2048   2.297       .  S
Mg2017     O2023   2.128       .  S
Mg2017     O2019   2.265       .  S
C2018      O2056   1.266       .  A
C2018      O2024   1.271       .  A
C2018      C2194   1.454       .  S
O2019      C2026   1.271       .  A
H2020      C2033   1.081       .  S
C2021      O2035   1.235       .  S
C2021      O2036   1.270       .  A
C2021      H2046   1.081       .  S
O2022      C2045   1.264       .  A
O2023     Mg2037   2.162       .  S
O2024     Mg2054   2.254       .  S
C2025      O2038   1.275       .  A
C2025      O2030   1.279       .  A
C2025      C2234   1.487       .  S
C2026      O2053   1.274       .  A
Mg2027     O2034   2.130       .  S
Mg2027     O2035   2.182       .  S
Mg2027     O2028   2.254       .  S
Mg2027     O2029   2.287       .  S
Mg2027     O2056   2.250       .  S
O2029      C2033   1.269       .  A
O2030     Mg2037   2.318       .  S
O2031      C2050   1.263       .  A
O2032      C2052   1.279       .  A
O2032     Mg2048   2.337       .  S
O2034     Mg2048   2.153       .  S
O2034      C2045   1.231       .  S
O2035     Mg2054   2.158       .  S
O2036     Mg2048   2.304       .  S
Mg2037     O2053   2.296       .  S
O2038     Mg2054   2.289       .  S
H2039      C2044   1.081       .  S
O2040     Mg2048   2.156       .  S
O2040      C2043   1.236       .  S
H2041      C2043   1.081       .  S
H2042      C2045   1.081       .  S
O2047     Mg2054   2.284       .  S
C2050      O2055   1.269       .  A
C2050      C2226   1.447       .  S
O2051      C2052   1.275       .  A
C2052      C2242   1.484       .  S
C2057      C2290   1.494       .  S
C2057      C2058   1.412       .  A
C2057      C2062   1.404       .  A
C2058      C2301   1.481       .  S
C2058      C2059   1.408       .  A
C2059      H2064   1.082       .  S
C2059      C2060   1.410       .  A
C2060      C2245   1.495       .  S
C2060      C2061   1.419       .  A
C2061      C2233   1.492       .  S
C2061      C2062   1.409       .  A
C2062      H2063   1.085       .  S
C2065      C2326   1.504       .  S
C2065      C2066   1.421       .  A
C2065      C2070   1.411       .  A
C2066      C2362   1.475       .  S
C2066      C2067   1.401       .  A
C2067      H2072   1.084       .  S
C2068      C2253   1.487       .  S
C2068      C2069   1.416   1_655  A
C2069      C2241   1.496   1_455  S
C2070      H2071   1.084       .  S
C2073      C2317   1.472       .  S
C2073      C2074   1.410       .  A
C2073      C2078   1.399       .  A
C2074      C2366   1.496       .  S
C2074      C2075   1.409       .  A
C2075      H2080   1.083       .  S
C2075      C2076   1.410       .  A
C2076      C2278   1.491       .  S
C2076      C2077   1.419       .  A
C2077      C2238   1.484       .  S
C2077      C2078   1.402       .  A
C2078      H2079   1.084       .  S
C2081      C2330   1.490       .  S
C2081      C2082   1.418       .  A
C2081      C2878   1.401       .  A
C2082      C2313   1.496       .  S
C2082      C2875   1.410       .  A
C2083      H2088   1.084       .  S
C2083      C2874   1.410       .  A
C2083      C2084   1.404       .  A
C2084      C2250   1.493       .  S
C2084      C2085   1.413       .  A
C2085      C2273   1.472       .  S
C2085      C2086   1.401       .  A
C2086      H2087   1.083       .  S
C2086      C2873   1.402   1_545  A
O2089     Mg2883   2.129   1_545  S
O2089     Mg2097   2.170   1_556  S
O2089      C2124   1.236       .  S
C2090      O2103   1.233       .  S
C2090      O2127   1.267       .  A
C2090      H2129   1.081       .  S
Mg2091     O2881   2.118       .  S
Mg2091     O2120   2.175   1_556  S
Mg2091     O2135   2.328   1_556  S
Mg2091     O2131   2.225       .  S
Mg2091     O2102   2.288       .  S
O2092     Mg2134   2.172   1_556  S
O2092     Mg2117   2.143       .  S
O2092      C2113   1.233       .  S
O2093     Mg2117   2.291       .  S
C2094      O2108   1.270   1_554  A
O2095      C2915   1.266       .  A
O2095     Mg2097   2.278   1_565  S
O2096     Mg2128   2.238       .  S
Mg2097     O2111   2.247       .  S
Mg2097     O2099   2.247       .  S
C2098      O2928   1.271   1_545  A
C2098      O2104   1.277       .  A
H2100      C2113   1.081       .  S
C2101      O2115   1.234       .  S
C2101      H2126   1.081       .  S
O2102      C2125   1.267       .  A
O2103     Mg2117   2.175   1_554  S
O2104     Mg2134   2.324   1_556  S
C2105      O2118   1.273       .  A
C2105      O2110   1.279       .  A
C2106      O2133   1.274       .  A
Mg2107     O2115   2.172   1_556  S
Mg2107     O2108   2.284       .  S
Mg2107     O2109   2.283       .  S
Mg2107     O2136   2.239       .  S
O2109      C2905   1.266       .  A
O2110     Mg2117   2.337   1_554  S
O2111      C2130   1.269   1_545  A
O2112      C2132   1.273       .  A
O2112     Mg2128   2.296   1_556  S
C2113      O2901   1.266       .  A
O2114     Mg2128   2.170   1_556  S
O2114      C2125   1.233       .  S
O2115     Mg2926   2.126       .  S
O2116     Mg2128   2.286   1_455  S
Mg2117     O2133   2.261       .  S
O2118     Mg2134   2.244       .  S
H2119      C2124   1.081       .  S
O2120     Mg2128   2.137       .  S
O2120      C2123   1.233       .  S
H2121      C2123   1.081       .  S
H2122      C2125   1.081       .  S
C2123      O2887   1.266       .  A
O2127     Mg2134   2.290       .  S
C2130      O2927   1.277       .  A
C2130      C2554   1.469       .  S
O2131      C2132   1.270       .  A
Mg2134     O2907   2.133   1_545  S
O2135      C2922   1.276       .  A
O2136      C2890   1.270       .  A
O2137     Mg2139   2.135       .  S
O2137     Mg2145   2.138       .  S
O2137      C2172   1.235       .  S
C2138      O2151   1.237       .  S
C2138      O2175   1.273       .  A
C2138      H2177   1.082       .  S
Mg2139     O2168   2.128       .  S
Mg2139     O2183   2.317       .  S
Mg2139     O2179   2.257       .  S
Mg2139     O2150   2.313       .  S
O2140     Mg2182   2.124       .  S
O2140     Mg2165   2.147       .  S
O2140      C2161   1.234       .  S
O2141      C2172   1.269       .  A
O2141     Mg2165   2.298       .  S
C2142      O2144   1.262       .  A
C2142      O2156   1.270       .  A
O2143      C2171   1.270       .  A
O2143     Mg2145   2.311       .  S
O2144     Mg2176   2.236       .  S
Mg2145     O2151   2.128       .  S
Mg2145     O2159   2.246       .  S
Mg2145     O2147   2.299       .  S
C2146      O2184   1.265       .  A
C2146      O2152   1.275       .  A
O2147      C2154   1.272       .  A
H2148      C2161   1.081       .  S
C2149      O2163   1.236       .  S
C2149      O2164   1.270       .  A
C2149      H2174   1.081       .  S
O2150      C2173   1.272       .  A
O2151     Mg2165   2.141       .  S
O2152     Mg2182   2.318       .  S
C2153      O2166   1.269       .  A
C2153      O2158   1.261       .  A
C2154      O2181   1.263       .  A
Mg2155     O2162   2.124       .  S
Mg2155     O2163   2.136       .  S
Mg2155     O2156   2.286       .  S
Mg2155     O2157   2.314       .  S
Mg2155     O2184   2.237       .  S
O2157      C2161   1.271       .  A
O2158     Mg2165   2.246       .  S
O2159      C2178   1.268       .  A
O2160      C2180   1.261       .  A
O2160     Mg2176   2.244       .  S
O2162     Mg2176   2.137       .  S
O2162      C2173   1.237       .  S
O2163     Mg2182   2.136       .  S
O2164     Mg2176   2.305       .  S
Mg2165     O2181   2.236       .  S
O2166     Mg2182   2.264       .  S
H2167      C2172   1.081       .  S
O2168     Mg2176   2.144       .  S
O2168      C2171   1.234       .  S
H2169      C2171   1.081       .  S
H2170      C2173   1.082       .  S
O2175     Mg2182   2.316       .  S
C2178      O2183   1.275       .  A
O2179      C2180   1.269       .  A
O2185     Mg2187   2.133       .  S
O2185     Mg2193   2.177       .  S
O2185      C2220   1.236       .  S
C2186      O2199   1.232       .  S
C2186      O2223   1.267       .  A
C2186      H2225   1.081       .  S
Mg2187     O2216   2.177       .  S
Mg2187     O2231   2.235       .  S
Mg2187     O2227   2.254       .  S
Mg2187     O2198   2.286       .  S
O2188     Mg2230   2.166       .  S
O2188     Mg2213   2.131       .  S
O2188      C2209   1.233       .  S
O2189      C2220   1.271       .  A
O2189     Mg2213   2.305       .  S
C2190      O2192   1.267       .  A
C2190      O2204   1.264       .  A
O2191      C2219   1.265       .  A
O2191     Mg2193   2.288       .  S
O2192     Mg2224   2.251       .  S
Mg2193     O2199   2.116       .  S
Mg2193     O2207   2.233       .  S
Mg2193     O2195   2.243       .  S
C2194      O2232   1.267       .  A
C2194      O2200   1.266       .  A
O2195      C2202   1.265       .  A
H2196      C2209   1.082       .  S
C2197      O2211   1.233       .  S
C2197      O2212   1.267       .  A
C2197      H2222   1.082       .  S
O2198      C2221   1.264       .  A
O2199     Mg2213   2.138       .  S
O2200     Mg2230   2.233       .  S
C2201      O2214   1.264       .  A
C2201      O2206   1.263       .  A
C2202      O2229   1.264       .  A
Mg2203     O2210   2.124       .  S
Mg2203     O2211   2.172       .  S
Mg2203     O2204   2.222       .  S
Mg2203     O2205   2.288       .  S
Mg2203     O2232   2.256       .  S
O2205      C2209   1.266       .  A
O2206     Mg2213   2.235       .  S
O2207      C2226   1.265       .  A
O2208      C2228   1.268       .  A
O2208     Mg2224   2.247       .  S
O2210     Mg2224   2.154       .  S
O2210      C2221   1.231       .  S
O2211     Mg2230   2.111       .  S
O2212     Mg2224   2.292       .  S
Mg2213     O2229   2.241       .  S
O2214     Mg2230   2.235       .  S
H2215      C2220   1.082       .  S
O2216     Mg2224   2.132       .  S
O2216      C2219   1.232       .  S
H2217      C2219   1.081       .  S
H2218      C2221   1.081       .  S
O2223     Mg2230   2.301       .  S
C2226      O2231   1.267       .  A
O2227      C2228   1.269       .  A
C2233      C2234   1.350       .  D
C2233      H2235   1.087       .  S
C2234      H2236   1.086       .  S
C2237      C2238   1.353       .  D
C2237      H2239   1.086       .  S
C2238      H2240   1.086       .  S
C2241      C2242   1.352       .  D
C2242      H2244   1.087       .  S
C2245      C2246   1.347       .  D
C2245      H2247   1.087       .  S
C2246      C2769   1.472       .  S
C2246      H2248   1.086       .  S
C2249      C2250   1.345       .  D
C2249      H2251   1.085       .  S
C2250      H2252   1.087       .  S
C2253      C2254   1.350       .  D
C2253      H2255   1.088       .  S
C2254      H2256   1.086       .  S
C2257      C2258   1.353       .  D
C2257      H2259   1.087       .  S
C2261      C2262   1.350       .  D
C2261      H2263   1.087       .  S
C2262      H2264   1.086       .  S
C2265      C2266   1.345       .  D
C2265      H2267   1.087       .  S
C2266      C2706   1.480       .  S
C2266      H2268   1.087       .  S
C2269      C2270   1.346       .  D
C2269      H2271   1.085       .  S
C2270      H2272   1.087       .  S
C2273      C2274   1.341       .  D
C2273      H2275   1.084       .  S
C2274      H2276   1.086       .  S
C2277      C2278   1.346       .  D
C2277      H2279   1.087       .  S
C2278      H2280   1.088       .  S
C2281      C2282   1.343       .  D
C2281      H2283   1.087       .  S
C2282      H2284   1.087       .  S
C2285      C2286   1.348       .  D
C2285      H2287   1.087       .  S
C2286      H2288   1.087       .  S
C2289      C2290   1.354       .  D
C2289      H2291   1.086       .  S
C2290      H2292   1.087       .  S
C2293      C2294   1.344       .  D
C2293      H2295   1.087       .  S
C2294      H2296   1.087       .  S
C2297      C2298   1.348       .  D
C2297      H2299   1.087       .  S
C2298      H2300   1.086       .  S
C2301      C2302   1.343       .  D
C2301      H2303   1.087       .  S
C2302      H2304   1.086       .  S
C2305      C2306   1.347       .  D
C2305      H2307   1.087       .  S
C2306      H2308   1.086       .  S
C2309      C2310   1.343       .  D
C2309      H2311   1.087       .  S
C2310      H2312   1.087       .  S
C2313      C2314   1.349       .  D
C2313      H3107   1.086       .  S
C2314      H2316   1.086       .  S
H2315      C3105   1.086       .  S
C2317      C2318   1.349       .  D
C2317      H2319   1.086       .  S
C2318      H2320   1.087       .  S
C2321      C2322   1.350       .  D
C2321      H2323   1.086       .  S
C2322      H2324   1.086       .  S
C2325      C2326   1.350       .  D
C2325      H2327   1.082       .  S
C2326      H2328   1.086       .  S
C2329      C2330   1.357       .  D
C2329      H2331   1.086       .  S
C2330      H2332   1.085       .  S
C2333      C2334   1.355       .  D
C2334      H2336   1.087       .  S
C2337      C2338   1.335       .  D
C2337      H2339   1.087       .  S
C2338      H2340   1.088       .  S
C2341      C2342   1.353       .  D
C2341      H2343   1.087       .  S
C2342      H2344   1.086       .  S
C2345      C2494   1.486   1_545  S
C2345      C2346   1.349       .  D
C2345      H2347   1.086       .  S
C2346      H2348   1.086       .  S
C2349      C2350   1.343       .  D
C2349      H2351   1.087       .  S
C2350      H2352   1.087       .  S
C2353      C2354   1.343       .  D
C2353      H2355   1.087       .  S
C2354      H2356   1.087       .  S
C2357      C2358   1.347       .  D
C2357      H2359   1.086       .  S
C2358      C2457   1.476       .  S
C2358      H2360   1.082       .  S
C2361      C2362   1.341       .  D
C2361      H2363   1.086       .  S
C2362      H2364   1.088       .  S
C2365      C2366   1.345       .  D
C2365      H2367   1.085       .  S
C2366      H2368   1.087       .  S
C2369      C2370   1.346       .  D
C2369      H2371   1.086       .  S
C2373      C2374   1.345       .  D
C2373      H2375   1.086       .  S
C2374      H2376   1.088       .  S
O2377     Mg2379   2.141       .  S
O2377     Mg2385   2.173       .  S
O2377      C2412   1.234       .  S
C2378      O2391   1.234       .  S
C2378      O2415   1.268       .  A
C2378      H2417   1.081       .  S
Mg2379     O2408   2.154       .  S
Mg2379     O2423   2.278       .  S
Mg2379     O2419   2.234       .  S
Mg2379     O2390   2.288       .  S
O2380     Mg2422   2.155       .  S
O2380     Mg2405   2.156       .  S
O2380      C2401   1.235       .  S
O2381      C2412   1.268       .  A
O2381     Mg2405   2.291       .  S
C2382      O2384   1.270       .  A
C2382      O2396   1.278       .  A
O2383      C2411   1.268       .  A
O2383     Mg2385   2.292       .  S
O2384     Mg2416   2.260       .  S
Mg2385     O2391   2.125       .  S
Mg2385     O2399   2.242       .  S
Mg2385     O2387   2.306       .  S
C2386      O2424   1.272       .  A
C2386      O2392   1.271       .  A
C2386      C2970   1.460       .  S
O2387      C2394   1.276       .  A
H2388      C2401   1.081       .  S
C2389      O2403   1.235       .  S
C2389      O2404   1.269       .  A
C2389      H2414   1.081       .  S
O2390      C2413   1.267       .  A
O2391     Mg2405   2.158       .  S
C2393      O2406   1.272       .  A
C2393      O2398   1.272       .  A
C2393      C3153   1.468       .  S
C2394      O2421   1.272       .  A
C2394      C3157   1.480       .  S
Mg2395     O2402   2.130       .  S
Mg2395     O2403   2.174       .  S
Mg2395     O2396   2.315       .  S
Mg2395     O2397   2.298       .  S
O2397      C2401   1.269       .  A
O2398     Mg2405   2.298       .  S
O2399      C2418   1.270       .  A
O2400      C2420   1.273       .  A
O2400     Mg2416   2.311       .  S
O2402     Mg2416   2.165       .  S
O2402      C2413   1.234       .  S
O2403     Mg2422   2.153       .  S
O2404     Mg2416   2.293       .  S
Mg2405     O2421   2.273       .  S
O2406     Mg2422   2.256       .  S
H2407      C2412   1.081       .  S
O2408     Mg2416   2.147       .  S
O2408      C2411   1.235       .  S
H2409      C2411   1.081       .  S
H2410      C2413   1.081       .  S
O2415     Mg2422   2.294       .  S
C2418      O2423   1.270       .  A
C2418      C2938   1.453       .  S
O2419      C2420   1.271       .  A
C2420      C3165   1.469       .  S
C2425      C3166   1.473       .  S
C2425      C2426   1.421       .  A
C2425      C2430   1.401       .  A
C2426      C3149   1.501       .  S
C2426      C2427   1.409       .  A
C2427      H2432   1.084       .  S
C2427      C2428   1.413       .  A
C2428      C3145   1.490       .  S
C2428      C2429   1.414       .  A
C2429      C3142   1.488       .  S
C2429      C2430   1.397       .  A
C2430      H2431   1.086       .  S
C2433      C3138   1.484       .  S
C2433      C2434   1.415       .  A
C2433      C2438   1.407       .  A
C2434      C3161   1.495       .  S
C2434      C2435   1.409       .  A
C2435      H2440   1.083       .  S
C2435      C2436   1.408       .  A
C2436      C3129   1.479       .  S
C2436      C2437   1.415       .  A
C2437      C3133   1.496       .  S
C2437      C2438   1.403       .  A
C2438      H2439   1.085       .  S
O2441     Mg2443   2.166       .  S
O2441     Mg2449   2.182       .  S
O2441      C2476   1.232       .  S
C2442      O2455   1.230       .  S
C2442      O2479   1.263       .  A
C2442      H2481   1.081       .  S
Mg2443     O2472   2.184       .  S
Mg2443     O2483   2.249       .  S
Mg2443     O2454   2.276       .  S
O2444     Mg2486   2.192       .  S
O2444     Mg2469   2.160       .  S
O2444      C2465   1.235       .  S
O2445      C2476   1.267       .  A
O2445     Mg2469   2.301       .  S
C2446      O2448   1.277       .  A
C2446      O2460   1.272       .  A
C2446      C3121   1.479       .  S
O2447      C2475   1.270       .  A
O2447     Mg2449   2.295       .  S
O2448     Mg2480   2.300       .  S
Mg2449     O2455   2.124       .  S
Mg2449     O2451   2.287       .  S
C2450      O2488   1.266       .  A
C2450      O2456   1.263       .  A
C2450      C2945   1.448       .  S
O2451      C2458   1.275       .  A
H2452      C2465   1.081       .  S
C2453      O2467   1.232       .  S
C2453      O2468   1.266       .  A
C2453      H2478   1.081       .  S
O2454      C2477   1.263       .  A
O2455     Mg2469   2.166       .  S
C2457      O2462   1.279   1_545  A
C2458      O2485   1.278       .  A
Mg2459     O2466   2.114       .  S
Mg2459     O2467   2.181       .  S
Mg2459     O2460   2.269       .  S
Mg2459     O2461   2.292       .  S
O2461      C2465   1.269       .  A
O2462     Mg2469   2.338       .  S
O2463      C2482   1.269       .  A
O2464      C2484   1.277       .  A
O2464     Mg2480   2.318       .  S
O2466     Mg2480   2.162       .  S
O2466      C2477   1.230       .  S
O2467     Mg2486   2.148       .  S
O2468     Mg2480   2.295       .  S
Mg2469     O2485   2.301       .  S
H2471      C2476   1.081       .  S
O2472     Mg2480   2.161       .  S
O2472      C2475   1.236       .  S
H2473      C2475   1.081       .  S
H2474      C2477   1.081       .  S
O2479     Mg2486   2.277       .  S
C2482      O2487   1.265   1_655  A
C2482      C2972   1.447       .  S
O2483      C2484   1.271       .  A
C2484      C3117   1.478       .  S
O2489     Mg2491   2.151       .  S
O2489     Mg2497   2.143       .  S
O2489      C2524   1.234       .  S
C2490      O2503   1.235       .  S
C2490      O2527   1.270       .  A
C2490      H2529   1.081       .  S
Mg2491     O2520   2.162       .  S
Mg2491     O2535   2.288       .  S
Mg2491     O2531   2.267       .  S
Mg2491     O2502   2.291       .  S
O2492     Mg2534   2.137       .  S
O2492     Mg2517   2.152       .  S
O2492      C2513   1.238       .  S
O2493      C2524   1.269       .  A
O2493     Mg2517   2.300       .  S
C2494      O2496   1.275       .  A
O2495      C2523   1.273       .  A
O2495     Mg2497   2.310       .  S
O2496     Mg2528   2.308       .  S
Mg2497     O2503   2.136       .  S
Mg2497     O2511   2.241       .  S
Mg2497     O2499   2.275       .  S
C2498      O2536   1.261       .  A
C2498      O2504   1.268       .  A
C2498      C2946   1.445       .  S
O2499      C2506   1.271       .  A
H2500      C2513   1.081       .  S
C2501      O2515   1.235       .  S
C2501      O2516   1.272       .  A
C2501      H2526   1.081   1_565  S
O2502      C2525   1.268       .  A
O2503     Mg2517   2.163       .  S
C2505      O2518   1.273       .  A
C2505      O2510   1.275       .  A
C2505      C3106   1.479       .  S
C2506      O2533   1.273       .  A
C2506      C3110   1.481       .  S
Mg2507     O2514   2.146       .  S
Mg2507     O2515   2.138       .  S
Mg2507     O2509   2.321       .  S
O2509      C2513   1.275       .  A
O2510     Mg2517   2.319       .  S
O2511      C2530   1.264       .  A
O2512      C2532   1.279       .  A
O2512     Mg2528   2.340       .  S
O2514     Mg2528   2.169       .  S
O2514      C2525   1.235       .  S
O2515     Mg2534   2.176       .  S
O2516     Mg2528   2.318       .  S
Mg2517     O2533   2.292       .  S
O2518     Mg2534   2.286       .  S
H2519      C2524   1.081       .  S
O2520     Mg2528   2.152       .  S
O2520      C2523   1.238       .  S
H2521      C2523   1.081       .  S
H2522      C2525   1.081       .  S
O2527     Mg2534   2.301       .  S
C2530      O2535   1.271       .  A
C2530      C2934   1.449       .  S
O2531      C2532   1.271       .  A
C2532      C3113   1.480       .  S
C2537      C3126   1.497       .  S
C2537      C2538   1.424       .  A
C2537      C2542   1.409       .  A
C2538      C3114   1.498       .  S
C2538      C2539   1.412       .  A
C2539      H2544   1.083       .  S
C2539      C2540   1.406       .  A
C2540      C3101   1.487       .  S
C2540      C2541   1.409       .  A
C2541      C3097   1.482       .  S
C2541      C2542   1.402       .  A
C2542      H2543   1.084       .  S
O2545     Mg2547   2.149   1_556  S
O2545      C2580   1.233       .  S
C2546      O2559   1.236       .  S
C2546      O2583   1.271       .  A
C2546      H2585   1.081       .  S
Mg2547     O2558   2.301       .  S
O2548     Mg2573   2.161       .  S
O2548      C2569   1.238       .  S
O2549      C2580   1.267       .  A
O2549     Mg2573   2.295       .  S
C2550      O2552   1.278       .  A
C2550      O2564   1.272       .  A
C2550      C3134   1.482       .  S
O2551      C2579   1.273   1_556  A
O2551     Mg2553   2.311       .  S
O2552     Mg2584   2.324       .  S
Mg2553     O2559   2.140       .  S
Mg2553     O2567   2.256       .  S
C2554      O2592   1.273       .  A
C2554      O2560   1.273   1_554  A
O2555      C2562   1.276       .  A
H2556      C2569   1.081       .  S
C2557      O2571   1.235       .  S
C2557      O2572   1.271       .  A
C2557      H2582   1.081   1_554  S
O2558      C2581   1.272       .  A
C2561      O2574   1.268       .  A
C2561      O2566   1.277       .  A
C2561      C3094   1.471       .  S
C2562      O2589   1.277       .  A
C2562      C3090   1.488       .  S
Mg2563     O2570   2.158   1_565  S
Mg2563     O2565   2.319       .  S
Mg2563     O2592   2.287       .  S
O2565      C2569   1.274   1_554  A
O2566     Mg2573   2.324       .  S
O2567      C2586   1.269       .  A
O2568      C2588   1.280       .  A
O2568     Mg2584   2.334       .  S
O2570      C2581   1.238   1_545  S
O2571     Mg2590   2.159   1_554  S
O2572     Mg2584   2.311       .  S
Mg2573     O2589   2.305       .  S
H2575      C2580   1.081   1_554  S
O2576     Mg2584   2.163       .  S
O2576      C2579   1.237       .  S
H2577      C2579   1.081       .  S
H2578      C2581   1.081       .  S
O2583     Mg2590   2.305       .  S
C2586      O2591   1.275   1_556  A
C2586      C2890   1.465       .  S
O2587      C2588   1.268       .  A
C2588      C3146   1.472       .  S
O2593     Mg2595   2.176   1_556  S
O2593     Mg2601   2.147       .  S
O2593      C2628   1.234       .  S
C2594      O2607   1.237       .  S
C2594      O2631   1.272       .  A
C2594      H2633   1.081       .  S
Mg2595     O2624   2.131       .  S
Mg2595     O2639   2.316       .  S
Mg2595     O2635   2.283       .  S
Mg2595     O2606   2.306       .  S
O2596     Mg2638   2.131       .  S
O2596     Mg2621   2.150       .  S
O2596      C2617   1.238   1_556  S
O2597      C2628   1.269       .  A
O2597     Mg2621   2.301       .  S
C2598      O2600   1.275       .  A
C2598      O2612   1.270       .  A
C2598      C3141   1.476       .  S
O2599      C2627   1.274   1_556  A
O2599     Mg2601   2.322       .  S
O2600     Mg2632   2.306       .  S
Mg2601     O2607   2.143       .  S
Mg2601     O2615   2.254       .  S
Mg2601     O2603   2.329       .  S
C2602      O2640   1.265       .  A
C2602      O2608   1.270   1_554  A
C2602      C2897   1.459       .  S
O2603      C2610   1.278       .  A
H2604      C2617   1.081   1_556  S
C2605      O2619   1.235       .  S
C2605      O2620   1.270       .  A
C2605      H2630   1.081   1_554  S
O2606      C2629   1.272       .  A
O2607     Mg2621   2.169       .  S
O2608     Mg2638   2.313       .  S
C2609      O2622   1.269       .  A
C2609      O2614   1.273       .  A
C2609      C3085   1.468       .  S
C2610      O2637   1.272       .  A
C2610      C3081   1.488       .  S
Mg2611     O2618   2.135       .  S
Mg2611     O2619   2.127       .  S
Mg2611     O2612   2.282       .  S
Mg2611     O2613   2.319       .  S
Mg2611     O2640   2.245       .  S
O2613      C2617   1.275       .  A
O2614     Mg2621   2.311       .  S
O2615      C2634   1.268       .  A
O2616      C2636   1.275       .  A
O2616     Mg2632   2.313       .  S
O2618     Mg2632   2.158       .  S
O2618      C2629   1.238       .  S
O2619     Mg2638   2.146   1_554  S
O2620     Mg2632   2.304       .  S
Mg2621     O2637   2.278       .  S
O2622     Mg2638   2.240       .  S
H2623      C2628   1.081   1_554  S
O2624     Mg2632   2.159       .  S
O2624      C2627   1.237       .  S
H2625      C2627   1.081       .  S
H2626      C2629   1.081       .  S
O2631     Mg2638   2.308       .  S
C2634      O2639   1.273   1_556  A
C2634      C2924   1.461       .  S
O2635      C2636   1.274       .  A
C2636      C3102   1.478       .  S
O2641     Mg2643   2.158   1_556  S
O2641      C2676   1.234       .  S
C2642      O2655   1.236       .  S
C2642      O2679   1.270       .  A
C2642      H2681   1.081       .  S
Mg2643     O2687   2.257   1_655  S
Mg2643     O2683   2.246       .  S
Mg2643     O2654   2.300       .  S
O2644      C2665   1.237       .  S
O2645      C2676   1.268       .  A
C2646      O2648   1.271       .  A
C2646      O2660   1.273       .  A
C2646      C3130   1.466       .  S
O2647      C2675   1.274       .  A
O2647     Mg2649   2.313   1_554  S
O2648     Mg2680   2.263       .  S
Mg2649     O2655   2.134       .  S
Mg2649     O2663   2.267       .  S
Mg2649     O2651   2.321       .  S
C2650      O2688   1.267   1_556  A
O2651      C2658   1.278       .  A
H2652      C2665   1.082       .  S
C2653      O2667   1.233       .  S
C2653      O2668   1.269       .  A
C2653      H2678   1.081       .  S
O2654      C2677   1.270       .  A
O2655     Mg2669   2.173       .  S
O2656     Mg2686   2.253       .  S
C2657      O2670   1.268       .  A
C2657      O2662   1.273       .  A
C2657      C3077   1.471       .  S
C2658      O2685   1.272       .  A
C2658      C3073   1.474       .  S
Mg2659     O2666   2.138       .  S
Mg2659     O2660   2.304       .  S
Mg2659     O2661   2.304   1_554  S
Mg2659     O2688   2.238       .  S
O2661      C2665   1.272       .  A
O2662     Mg2669   2.317       .  S
O2663      C2682   1.271   1_556  A
O2664      C2684   1.275       .  A
O2664     Mg2680   2.330       .  S
O2666     Mg2680   2.153       .  S
O2666      C2677   1.235       .  S
O2667     Mg2686   2.162   1_554  S
Mg2669     O2685   2.253       .  S
O2670     Mg2686   2.243       .  S
H2671      C2676   1.081       .  S
O2672      C2675   1.238       .  S
H2673      C2675   1.082       .  S
H2674      C2677   1.081       .  S
O2679     Mg2686   2.295       .  S
C2682      C2886   1.454       .  S
O2683      C2684   1.268       .  A
C2684      C3098   1.478       .  S
O2689     Mg2691   2.148       .  S
O2689     Mg2697   2.134       .  S
O2689      C2724   1.231       .  S
C2690      O2703   1.236       .  S
C2690      O2727   1.267       .  A
C2690      H2729   1.081       .  S
Mg2691     O2720   2.161       .  S
Mg2691     O2731   2.213       .  S
Mg2691     O2702   2.285       .  S
O2692     Mg2734   2.160       .  S
O2692     Mg2717   2.132       .  S
O2692      C2713   1.237       .  S
O2693      C2724   1.264       .  A
O2693     Mg2717   2.287       .  S
C2694      O2696   1.277       .  A
C2694      O2708   1.277       .  A
C2694      C3069   1.482       .  S
O2695      C2723   1.275       .  A
O2695     Mg2697   2.323       .  S
O2696     Mg2728   2.291       .  S
Mg2697     O2703   2.116       .  S
C2698      O2736   1.270       .  A
C2698      O2704   1.262       .  A
C2698      C2982   1.444       .  S
H2700      C2713   1.081       .  S
C2701      O2715   1.231       .  S
C2701      O2716   1.266       .  A
C2701      H2726   1.081       .  S
O2702      C2725   1.268       .  A
O2703     Mg2717   2.182       .  S
O2704     Mg2734   2.258       .  S
C2705      O2718   1.263       .  A
C2705      O2710   1.272       .  A
C2705      C3061   1.458       .  S
C2706      O2733   1.273       .  A
Mg2707     O2714   2.134       .  S
Mg2707     O2715   2.134       .  S
Mg2707     O2708   2.317       .  S
Mg2707     O2709   2.303       .  S
Mg2707     O2736   2.251       .  S
O2709      C2713   1.271       .  A
O2710     Mg2717   2.290       .  S
O2711      C2730   1.272       .  A
O2712      C2732   1.275       .  A
O2712     Mg2728   2.316       .  S
O2714     Mg2728   2.169       .  S
O2714      C2725   1.235       .  S
O2715     Mg2734   2.148       .  S
O2716     Mg2728   2.299       .  S
Mg2717     O2733   2.260       .  S
O2718     Mg2734   2.215       .  S
H2719      C2724   1.081       .  S
O2720     Mg2728   2.163       .  S
O2720      C2723   1.238       .  S
H2721      C2723   1.081       .  S
H2722      C2725   1.081       .  S
O2727     Mg2734   2.276       .  S
C2730      O2735   1.264   1_565  A
C2730      C2994   1.450       .  S
O2731      C2732   1.263       .  A
C2732      C3066   1.463       .  S
C2737      C3078   1.479       .  S
C2737      C2738   1.407       .  A
C2737      C2742   1.403       .  A
C2738      C3086   1.479       .  S
C2738      C2739   1.398       .  A
C2739      H2744   1.082       .  S
C2739      C2740   1.407       .  A
C2740      C3062   1.485       .  S
C2740      C2741   1.417       .  A
C2741      C3053   1.488       .  S
C2741      C2742   1.405       .  A
C2742      H2743   1.084       .  S
C2745      C3074   1.487       .  S
C2745      C2746   1.414       .  A
C2745      C2750   1.409       .  A
C2746      C3089   1.488       .  S
C2746      C2747   1.406       .  A
C2747      H2752   1.084       .  S
C2747      C2748   1.407       .  A
C2748      C3057   1.494       .  S
C2748      C2749   1.417       .  A
C2749      C3049   1.483       .  S
C2749      C2750   1.406       .  A
C2750      H2751   1.083       .  S
O2753     Mg2755   2.171       .  S
O2753     Mg2761   2.130       .  S
O2753      C2788   1.232       .  S
C2754      O2767   1.235       .  S
C2754      O2791   1.267       .  A
C2754      H2793   1.081       .  S
Mg2755     O2784   2.146       .  S
Mg2755     O2795   2.223       .  S
Mg2755     O2766   2.296       .  S
O2756     Mg2798   2.163       .  S
O2756     Mg2781   2.140       .  S
O2756      C2777   1.238       .  S
O2757      C2788   1.268       .  A
O2757     Mg2781   2.308       .  S
C2758      O2760   1.275       .  A
C2758      O2772   1.279       .  A
C2758      C3041   1.487       .  S
O2759      C2787   1.276       .  A
O2759     Mg2761   2.326       .  S
O2760     Mg2792   2.283       .  S
Mg2761     O2767   2.122       .  S
C2762      O2800   1.264       .  A
C2762      O2768   1.260       .  A
C2762      C2993   1.440       .  S
H2764      C2777   1.081       .  S
C2765      O2779   1.233       .  S
C2765      O2780   1.268       .  A
C2765      H2790   1.081       .  S
O2766      C2789   1.269       .  A
O2767     Mg2781   2.164       .  S
C2769      O2782   1.265       .  A
C2769      O2774   1.276       .  A
C2770      O2797   1.275   1_455  A
Mg2771     O2778   2.128       .  S
Mg2771     O2779   2.141       .  S
Mg2771     O2772   2.344       .  S
Mg2771     O2773   2.308       .  S
O2773      C2777   1.273       .  A
O2774     Mg2781   2.323       .  S
O2775      C2794   1.268       .  A
O2776      C2796   1.273       .  A
O2776     Mg2792   2.320       .  S
O2778     Mg2792   2.148       .  S
O2778      C2789   1.235       .  S
O2779     Mg2798   2.161       .  S
O2780     Mg2792   2.303       .  S
Mg2781     O2797   2.277       .  S
O2782     Mg2798   2.234       .  S
H2783      C2788   1.081       .  S
O2784     Mg2792   2.170       .  S
O2784      C2787   1.239       .  S
H2785      C2787   1.081       .  S
H2786      C2789   1.081       .  S
O2791     Mg2798   2.276       .  S
C2794      O2799   1.265       .  A
C2794      C3020   1.451       .  S
O2795      C2796   1.267       .  A
C2796      C3046   1.472       .  S
O2801     Mg2803   2.163       .  S
O2801     Mg2809   2.185       .  S
O2801      C2836   1.235       .  S
C2802      O2815   1.232       .  S
C2802      O2839   1.266       .  A
C2802      H2841   1.081       .  S
Mg2803     O2832   2.162       .  S
Mg2803     O2843   2.290       .  S
Mg2803     O2814   2.290       .  S
O2804     Mg2846   2.163       .  S
O2804     Mg2829   2.153       .  S
O2804      C2825   1.236       .  S
O2805      C2836   1.270       .  A
O2805     Mg2829   2.304       .  S
C2806      O2808   1.273       .  A
C2806      O2820   1.273       .  A
C2806      C3029   1.477       .  S
O2807      C2835   1.269       .  A
O2807     Mg2809   2.295       .  S
O2808     Mg2840   2.285       .  S
Mg2809     O2815   2.123       .  S
Mg2809     O2811   2.267       .  S
C2810      O2848   1.268       .  A
C2810      O2816   1.272       .  A
C2810      C2986   1.458       .  S
O2811      C2818   1.270       .  A
H2812      C2825   1.081       .  S
C2813      O2827   1.236       .  S
C2813      O2828   1.270       .  A
C2813      H2838   1.081       .  S
O2814      C2837   1.265       .  A
O2815     Mg2829   2.156       .  S
O2816     Mg2846   2.260       .  S
C2817      O2830   1.276       .  A
C2817      O2822   1.276       .  A
C2817      C3026   1.480       .  S
C2818      O2845   1.274       .  A
Mg2819     O2826   2.132       .  S
Mg2819     O2827   2.182       .  S
Mg2819     O2820   2.274       .  S
Mg2819     O2821   2.296       .  S
Mg2819     O2848   2.262       .  S
O2821      C2825   1.270       .  A
O2822     Mg2829   2.322       .  S
O2823      C2842   1.264       .  A
O2824      C2844   1.277       .  A
O2824     Mg2840   2.329       .  S
O2826     Mg2840   2.159       .  S
O2826      C2837   1.232       .  S
O2827     Mg2846   2.164       .  S
O2828     Mg2840   2.302       .  S
Mg2829     O2845   2.297       .  S
O2830     Mg2846   2.298       .  S
H2831      C2836   1.081       .  S
O2832     Mg2840   2.148       .  S
O2832      C2835   1.235       .  S
H2833      C2835   1.081       .  S
H2834      C2837   1.081       .  S
O2839     Mg2846   2.290       .  S
C2842      O2847   1.270       .  A
C2842      C3018   1.451       .  S
O2843      C2844   1.274       .  A
C2844      C3034   1.481       .  S
C2849      C3082   1.490       .  S
C2849      C2850   1.415       .  A
C2849      C2854   1.407       .  A
C2850      C3093   1.489       .  S
C2850      C2851   1.410       .  A
C2851      H2856   1.084       .  S
C2851      C2852   1.406       .  A
C2852      C3037   1.479       .  S
C2852      C2853   1.415       .  A
C2853      C3025   1.495       .  S
C2853      C2854   1.408       .  A
C2854      H2855   1.085       .  S
C2857      C3118   1.504       .  S
C2857      C2858   1.422       .  A
C2857      C2862   1.412       .  A
C2858      C3154   1.475       .  S
C2858      C2859   1.402       .  A
C2859      H2864   1.084       .  S
C2860      C3045   1.483       .  S
C2860      C2861   1.414   1_655  A
C2861      C3033   1.495   1_455  S
C2862      H2863   1.084       .  S
C2865      C3109   1.478       .  S
C2865      C2866   1.411       .  A
C2865      C2870   1.402       .  A
C2866      C3158   1.489       .  S
C2866      C2867   1.407       .  A
C2867      H2872   1.084       .  S
C2867      C2868   1.407       .  A
C2868      C3070   1.490       .  S
C2868      C2869   1.419       .  A
C2869      C3030   1.484       .  S
C2869      C2870   1.405       .  A
C2870      H2871   1.085       .  S
C2873      C3122   1.492       .  S
C2873      C2874   1.422   1_565  A
C2874      C3105   1.491   1_545  S
C2875      H2880   1.084       .  S
C2875      C2876   1.412       .  A
C2876      C3042   1.494       .  S
C2876      C2877   1.418       .  A
C2877      C3065   1.492       .  S
C2877      C2878   1.407       .  A
C2878      H2879   1.082       .  S
O2881     Mg2889   2.161   1_556  S
O2881      C2916   1.235       .  S
C2882      O2895   1.233       .  S
C2882      O2919   1.267       .  A
C2882      H2921   1.081       .  S
Mg2883     O2912   2.175   1_556  S
Mg2883     O2927   2.329   1_556  S
Mg2883     O2923   2.241       .  S
Mg2883     O2894   2.292       .  S
O2884     Mg2926   2.174   1_556  S
O2884     Mg2909   2.148       .  S
O2884      C2905   1.233       .  S
O2885     Mg2909   2.286       .  S
C2886      O2900   1.271   1_554  A
O2887     Mg2889   2.279       .  S
O2888     Mg2920   2.245       .  S
Mg2889     O2903   2.264       .  S
Mg2889     O2891   2.260   1_554  S
C2890      O2896   1.277       .  A
H2892      C2905   1.081       .  S
C2893      O2907   1.234       .  S
C2893      H2918   1.081       .  S
O2894      C2917   1.266       .  A
O2895     Mg2909   2.175   1_554  S
O2896     Mg2926   2.325   1_556  S
C2897      O2910   1.271       .  A
C2897      O2902   1.277       .  A
C2898      O2925   1.275       .  A
Mg2899     O2907   2.174   1_556  S
Mg2899     O2900   2.286       .  S
Mg2899     O2901   2.284   1_565  S
Mg2899     O2928   2.249       .  S
O2902     Mg2909   2.323   1_554  S
O2903      C2922   1.272       .  A
O2904      C2924   1.277       .  A
O2904     Mg2920   2.323   1_556  S
O2906     Mg2920   2.171   1_556  S
O2906      C2917   1.233       .  S
O2908     Mg2920   2.292   1_455  S
Mg2909     O2925   2.266       .  S
O2910     Mg2926   2.233       .  S
H2911      C2916   1.081       .  S
O2912     Mg2920   2.131       .  S
O2912      C2915   1.234       .  S
H2913      C2915   1.081       .  S
H2914      C2917   1.081       .  S
O2919     Mg2926   2.289       .  S
O2923      C2924   1.272       .  A
O2929     Mg2931   2.136       .  S
O2929     Mg2937   2.133       .  S
O2929      C2964   1.236       .  S
C2930      O2943   1.238       .  S
C2930      O2967   1.274       .  A
C2930      H2969   1.082       .  S
Mg2931     O2960   2.129       .  S
Mg2931     O2975   2.317       .  S
Mg2931     O2971   2.266       .  S
Mg2931     O2942   2.310       .  S
O2932     Mg2974   2.114       .  S
O2932     Mg2957   2.133       .  S
O2932      C2953   1.234       .  S
O2933      C2964   1.271       .  A
O2933     Mg2957   2.304       .  S
C2934      O2936   1.262       .  A
C2934      O2948   1.270       .  A
O2935      C2963   1.271       .  A
O2935     Mg2937   2.312       .  S
O2936     Mg2968   2.239       .  S
Mg2937     O2943   2.133       .  S
Mg2937     O2951   2.255       .  S
Mg2937     O2939   2.297       .  S
C2938      O2976   1.266       .  A
C2938      O2944   1.273       .  A
O2939      C2946   1.271       .  A
H2940      C2953   1.081       .  S
C2941      O2955   1.236       .  S
C2941      O2956   1.271       .  A
C2941      H2966   1.081       .  S
O2942      C2965   1.272       .  A
O2943     Mg2957   2.132       .  S
O2944     Mg2974   2.310       .  S
C2945      O2958   1.268       .  A
C2945      O2950   1.259       .  A
C2946      O2973   1.259       .  A
Mg2947     O2954   2.123       .  S
Mg2947     O2955   2.136       .  S
Mg2947     O2948   2.283       .  S
Mg2947     O2949   2.311       .  S
Mg2947     O2976   2.241       .  S
O2949      C2953   1.270       .  A
O2950     Mg2957   2.248       .  S
O2951      C2970   1.268       .  A
O2952      C2972   1.262       .  A
O2952     Mg2968   2.249       .  S
O2954     Mg2968   2.135       .  S
O2954      C2965   1.237       .  S
O2955     Mg2974   2.134       .  S
O2956     Mg2968   2.305       .  S
Mg2957     O2973   2.214       .  S
O2958     Mg2974   2.268       .  S
H2959      C2964   1.081       .  S
O2960     Mg2968   2.143       .  S
O2960      C2963   1.235       .  S
H2961      C2963   1.081       .  S
H2962      C2965   1.082       .  S
O2967     Mg2974   2.323       .  S
C2970      O2975   1.275       .  A
O2971      C2972   1.270       .  A
O2977     Mg2979   2.123       .  S
O2977     Mg2985   2.172       .  S
O2977      C3012   1.234       .  S
C2978      O2991   1.231       .  S
C2978      O3015   1.265       .  A
C2978      H3017   1.081       .  S
Mg2979     O3008   2.195       .  S
Mg2979     O3023   2.230       .  S
Mg2979     O3019   2.255       .  S
Mg2979     O2990   2.285       .  S
O2980     Mg3022   2.182       .  S
O2980     Mg3005   2.144       .  S
O2980      C3001   1.235       .  S
O2981      C3012   1.269       .  A
O2981     Mg3005   2.304       .  S
C2982      O2984   1.268       .  A
C2982      O2996   1.264       .  A
O2983      C3011   1.268       .  A
O2983     Mg2985   2.292       .  S
O2984     Mg3016   2.265       .  S
Mg2985     O2991   2.133       .  S
Mg2985     O2999   2.254       .  S
Mg2985     O2987   2.237       .  S
C2986      O3024   1.268       .  A
C2986      O2992   1.266       .  A
O2987      C2994   1.264       .  A
H2988      C3001   1.082       .  S
C2989      O3003   1.233       .  S
C2989      O3004   1.268       .  A
C2989      H3014   1.082       .  S
O2990      C3013   1.263       .  A
O2991     Mg3005   2.149       .  S
O2992     Mg3022   2.233       .  S
C2993      O3006   1.264       .  A
C2993      O2998   1.268       .  A
C2994      O3021   1.266       .  A
Mg2995     O3002   2.137       .  S
Mg2995     O3003   2.161       .  S
Mg2995     O2996   2.232       .  S
Mg2995     O2997   2.295       .  S
Mg2995     O3024   2.274       .  S
O2997      C3001   1.269       .  A
O2998     Mg3005   2.245       .  S
O2999      C3018   1.266       .  A
O3000      C3020   1.269       .  A
O3000     Mg3016   2.246       .  S
O3002     Mg3016   2.156       .  S
O3002      C3013   1.230       .  S
O3003     Mg3022   2.105       .  S
O3004     Mg3016   2.298       .  S
Mg3005     O3021   2.266       .  S
O3006     Mg3022   2.225       .  S
H3007      C3012   1.082       .  S
O3008     Mg3016   2.140       .  S
O3008      C3011   1.234       .  S
H3009      C3011   1.081       .  S
H3010      C3013   1.081       .  S
O3015     Mg3022   2.294       .  S
C3018      O3023   1.267       .  A
O3019      C3020   1.268       .  A
C3025      C3026   1.349       .  D
C3025      H3027   1.088       .  S
C3026      H3028   1.086       .  S
C3029      C3030   1.349       .  D
C3029      H3031   1.086       .  S
C3030      H3032   1.083       .  S
C3033      C3034   1.351       .  D
C3034      H3036   1.087       .  S
C3037      C3038   1.348       .  D
C3037      H3039   1.088       .  S
C3038      H3040   1.087       .  S
C3041      C3042   1.351       .  D
C3041      H3043   1.086       .  S
C3042      H3044   1.087       .  S
C3045      C3046   1.347       .  D
C3045      H3047   1.088       .  S
C3046      H3048   1.086       .  S
C3049      C3050   1.352       .  D
C3049      H3051   1.087       .  S
C3053      C3054   1.349       .  D
C3053      H3055   1.086       .  S
C3054      H3056   1.086       .  S
C3057      C3058   1.349       .  D
C3057      H3059   1.087       .  S
C3058      H3060   1.086       .  S
C3061      C3062   1.345       .  D
C3061      H3063   1.085       .  S
C3062      H3064   1.087       .  S
C3065      C3066   1.346       .  D
C3065      H3067   1.086       .  S
C3066      H3068   1.085       .  S
C3069      C3070   1.345       .  D
C3069      H3071   1.087       .  S
C3070      H3072   1.087       .  S
C3073      C3074   1.346       .  D
C3073      H3075   1.087       .  S
C3074      H3076   1.087       .  S
C3077      C3078   1.346       .  D
C3077      H3079   1.086       .  S
C3078      H3080   1.087       .  S
C3081      C3082   1.347       .  D
C3081      H3083   1.086       .  S
C3082      H3084   1.086       .  S
C3085      C3086   1.343       .  D
C3085      H3087   1.087       .  S
C3086      H3088   1.087       .  S
C3089      C3090   1.350       .  D
C3089      H3091   1.087       .  S
C3090      H3092   1.086       .  S
C3093      C3094   1.342       .  D
C3093      H3095   1.085       .  S
C3094      H3096   1.086       .  S
C3097      C3098   1.348       .  D
C3097      H3099   1.087       .  S
C3098      H3100   1.086       .  S
C3101      C3102   1.344       .  D
C3101      H3103   1.087       .  S
C3102      H3104   1.087       .  S
C3105      C3106   1.348       .  D
C3106      H3108   1.087       .  S
C3109      C3110   1.347       .  D
C3109      H3111   1.086       .  S
C3110      H3112   1.086       .  S
C3113      C3114   1.349       .  D
C3113      H3115   1.086       .  S
C3114      H3116   1.087       .  S
C3117      C3118   1.351       .  D
C3117      H3119   1.081       .  S
C3118      H3120   1.086       .  S
C3121      C3122   1.356       .  D
C3121      H3123   1.086       .  S
C3122      H3124   1.086       .  S
C3125      C3126   1.354       .  D
C3126      H3128   1.087       .  S
C3129      C3130   1.341       .  D
C3129      H3131   1.087       .  S
C3130      H3132   1.087       .  S
C3133      C3134   1.344       .  D
C3133      H3135   1.087       .  S
C3134      H3136   1.087       .  S
C3137      C3138   1.356       .  D
C3137      H3139   1.086       .  S
C3138      H3140   1.087       .  S
C3141      C3142   1.341       .  D
C3141      H3143   1.088       .  S
C3142      H3144   1.087       .  S
C3145      C3146   1.342       .  D
C3145      H3147   1.087       .  S
C3146      H3148   1.086       .  S
C3149      C3150   1.347       .  D
C3149      H3151   1.088       .  S
C3150      H3152   1.083       .  S
C3153      C3154   1.341       .  D
C3153      H3155   1.086       .  S
C3154      H3156   1.087       .  S
C3157      C3158   1.347       .  D
C3157      H3159   1.086       .  S
C3158      H3160   1.086       .  S
C3161      C3162   1.348       .  D
C3161      H3163   1.086       .  S
C3165      C3166   1.343       .  D
C3165      H3167   1.086       .  S
C3166      H3168   1.088       .  S
