geometry optimzed in LAMMPS
_audit_creation_date              2020-11-30 
_audit_creation_method            'lammps2cif' 
_symmetry_space_group_name_H-M    'P1' 
_symmetry_Int_Tables_number       1 
_symmetry_cell_setting            triclinic 
loop_ 
_symmetry_equiv_pos_as_xyz 
  x,y,z 
_cell_length_a                    69.22749408 
_cell_length_b                    69.8697418708819 
_cell_length_c                    69.13610000358064 
_cell_angle_alpha                 89.83874410783959 
_cell_angle_beta                  90.41025603351335 
_cell_angle_gamma                 89.77034508803867 
loop_ 
_atom_site_label 
_atom_site_type_symbol 
_atom_site_fract_x 
_atom_site_fract_y 
_atom_site_fract_z 
_atom_site_charge 
N1          N  0.74398110  0.90417527  0.40440681    -0.02600
C2          C  0.73044094  0.90248585  0.39030199     0.00000
C3          C  0.73382362  0.88617493  0.37954333    -0.22900
C4          C  0.74992181  0.87745761  0.38752060    -0.23100
C5          C  0.75584627  0.88887972  0.40270386    -0.00100
H6          H  0.72554076  0.88121086  0.36722228     0.13600
H7          H  0.75625500  0.86398759  0.38311759     0.13700
N8          N  0.75013839  0.90396348  0.58132843    -0.02600
C9          C  0.74016278  0.90418853  0.59817512     0.00000
C10         C  0.74546953  0.88885259  0.60971312    -0.22900
C11         C  0.75925329  0.87879159  0.59971425    -0.23100
C12         C  0.76201780  0.88846958  0.58251633    -0.00100
H13         H  0.73989155  0.88538216  0.62387369     0.13600
H14         H  0.76673994  0.86602037  0.60460130     0.13700
N15         N  0.74905978  0.07061701  0.40550195    -0.02600
C16         C  0.73802773  0.07097078  0.38910037     0.00000
C17         C  0.74336767  0.08608348  0.37740607    -0.22900
C18         C  0.75783960  0.09561869  0.38698897    -0.23100
C19         C  0.76109746  0.08592131  0.40414744    -0.00100
H20         H  0.73705185  0.09002184  0.36358697     0.13600
H21         H  0.76507297  0.10843552  0.38210103     0.13700
N22         N  0.74808324  0.07367569  0.57673116    -0.02600
C23         C  0.73587211  0.07547313  0.59195589     0.00000
C24         C  0.73931480  0.09235755  0.60170580    -0.22900
C25         C  0.75432005  0.10120512  0.59239988    -0.23100
C26         C  0.75950108  0.08943347  0.57728688    -0.00100
H27         H  0.73189580  0.09751852  0.61440192     0.13600
H28         H  0.76062265  0.11488193  0.59607152     0.13700
O29         O  0.73364862  0.00678372  0.51357107    -0.72100
O30         O  0.73191123  0.96659701  0.47205299    -0.73100
O31         O  0.73298220  0.96600561  0.51328666    -0.61700
O32         O  0.73250396  0.00747409  0.47247808    -0.70100
O33         O  0.76455232  0.00658605  0.47151991    -0.69700
O34         O  0.76505383  0.96588013  0.51306847    -0.60900
O35         O  0.76395109  0.96605804  0.47144373    -0.73400
O36         O  0.76558545  0.00662479  0.51279001    -0.72200
Cu37       Cu  0.73165776  0.98670045  0.49286973     1.04600
Cu38       Cu  0.76590336  0.98621688  0.49219746     1.04300
C39         C  0.74983765  0.01323051  0.51970405     0.94100
C40         C  0.74766726  0.96018818  0.46498755     0.93200
C41         C  0.74910209  0.95967954  0.51982159     0.85400
C42         C  0.74845295  0.01348900  0.46556393     0.91700
N43         N  0.91132025  0.74406812  0.40277055    -0.02600
C44         C  0.90782028  0.73039225  0.38920232     0.00000
C45         C  0.89018355  0.73360784  0.38032789    -0.22900
C46         C  0.88248422  0.74966650  0.38869750    -0.23100
C47         C  0.89576203  0.75608118  0.40227770    -0.00100
H48         H  0.88369463  0.72530599  0.36881821     0.13600
H49         H  0.86847755  0.75581820  0.38537676     0.13700
N50         N  0.91793168  0.74678983  0.57529058    -0.02600
C51         C  0.91898684  0.73635773  0.59189772     0.00000
C52         C  0.90389966  0.74077645  0.60403310    -0.22900
C53         C  0.89284317  0.75414454  0.59457306    -0.23100
C54         C  0.90162548  0.75758057  0.57700697    -0.00100
H55         H  0.90087585  0.73437900  0.61795670     0.13600
H56         H  0.87953578  0.76041792  0.59975511     0.13700
N57         N  0.08569394  0.73768146  0.40158767    -0.02600
C58         C  0.08426491  0.72632184  0.38574815     0.00000
C59         C  0.09997065  0.72903338  0.37382096    -0.22900
C60         C  0.11153692  0.74245214  0.38265066    -0.23100
C61         C  0.10235009  0.74763203  0.39951875    -0.00100
H62         H  0.10273382  0.72194902  0.36021252     0.13600
H63         H  0.12500060  0.74806782  0.37721461     0.13700
N64         N  0.08667091  0.73770653  0.57236325    -0.02600
C65         C  0.08822627  0.72372424  0.58605324     0.00000
C66         C  0.10581868  0.72499987  0.59550977    -0.22900
C67         C  0.11556078  0.73999816  0.58720786    -0.23100
C68         C  0.10359628  0.74748824  0.57297055    -0.00100
H69         H  0.11100417  0.71595710  0.60718871     0.13600
H70         H  0.13004324  0.74463271  0.59079573     0.13700
O71         O  0.02078318  0.73047153  0.46638079    -0.72100
O72         O  0.97893679  0.73144026  0.50646766    -0.73100
O73         O  0.97979553  0.73187772  0.46547728    -0.61700
O74         O  0.02018178  0.73003164  0.50725483    -0.70100
O75         O  0.02133779  0.76174667  0.50765366    -0.69700
O76         O  0.98015721  0.76355702  0.46547523    -0.60900
O77         O  0.98008167  0.76318672  0.50705273    -0.73400
O78         O  0.02145157  0.76224786  0.46599896    -0.72200
Cu79       Cu  0.99988300  0.72991573  0.48637996     1.04600
Cu80       Cu  0.00079499  0.76384366  0.48654607     1.04300
C81         C  0.02760699  0.74612173  0.45981157     0.94100
C82         C  0.97302009  0.74742487  0.51317727     0.93200
C83         C  0.97344941  0.74781583  0.45884273     0.85400
C84         C  0.02722444  0.74550401  0.51406538     0.91700
N85         N  0.24851335  0.90522482  0.40129930    -0.02600
C86         C  0.23588766  0.89049504  0.39915382     0.00000
C87         C  0.24009712  0.88013904  0.38272283    -0.22900
C88         C  0.25578582  0.88874597  0.37434486    -0.23100
C89         C  0.26060702  0.90412357  0.38589428    -0.00100
H90         H  0.23282725  0.86739704  0.37766118     0.13600
H91         H  0.26277610  0.88443303  0.36109215     0.13700
N92         N  0.24785674  0.90592720  0.57189919    -0.02600
C93         C  0.23528526  0.89108282  0.57260418     0.00000
C94         C  0.23974945  0.87910978  0.58794360    -0.22900
C95         C  0.25555044  0.88685523  0.59709748    -0.23100
C96         C  0.26027132  0.90320000  0.58694482    -0.00100
H97         H  0.23252847  0.86594029  0.59178340     0.13600
H98         H  0.26276431  0.88126664  0.60986407     0.13700
N99         N  0.25156062  0.07756254  0.39982290    -0.02600
C100        C  0.24102636  0.09395747  0.39920786     0.00000
C101        C  0.24608228  0.10485630  0.38334438    -0.22900
C102        C  0.26015957  0.09476842  0.37374597    -0.23100
C103        C  0.26317525  0.07807172  0.38410175    -0.00100
H104        H  0.24060406  0.11891572  0.37956710     0.13600
H105        H  0.26750547  0.09917434  0.36071687     0.13700
N106        N  0.26018968  0.07758626  0.57149919    -0.02600
C107        C  0.25080099  0.09453318  0.57356228     0.00000
C108        C  0.25823527  0.10453169  0.58911734    -0.22900
C109        C  0.27269277  0.09336761  0.59696407    -0.23100
C110        C  0.27365503  0.07700603  0.58583650    -0.00100
H111        H  0.25377466  0.11854634  0.59404107     0.13600
H112        H  0.28141657  0.09669397  0.60955526     0.13700
O113        O  0.23285566  0.97182902  0.46639652    -0.72100
O114        O  0.23589727  0.01342328  0.50699634    -0.73100
O115        O  0.23430126  0.01266928  0.46563220    -0.61700
O116        O  0.23416622  0.97263473  0.50783855    -0.70100
O117        O  0.26611346  0.97110989  0.50669078    -0.69700
O118        O  0.26623725  0.01162575  0.46475605    -0.60900
O119        O  0.26784460  0.01213521  0.50598521    -0.73400
O120        O  0.26477838  0.97078317  0.46550217    -0.72200
Cu121      Cu  0.23320820  0.99269758  0.48674705     1.04600
Cu122      Cu  0.26733843  0.99137336  0.48571795     1.04300
C123        C  0.24840391  0.96473104  0.45946021     0.94100
C124        C  0.25237148  0.01931545  0.51296070     0.93200
C125        C  0.25021037  0.01850175  0.45846394     0.85400
C126        C  0.25011620  0.96535920  0.51379190     0.91700
N127        N  0.41509116  0.90235333  0.23740858    -0.02600
C128        C  0.41446704  0.88693955  0.22547618     0.00000
C129        C  0.39877978  0.87560027  0.22983903    -0.22900
C130        C  0.38940172  0.88427524  0.24497448    -0.23100
C131        C  0.39966765  0.90064045  0.24934254    -0.00100
H132        H  0.39476000  0.86230983  0.22292245     0.13600
H133        H  0.37633184  0.87935522  0.25185910     0.13700
N134        N  0.58307440  0.90915275  0.23801870    -0.02600
C135        C  0.58572161  0.89449383  0.22548326     0.00000
C136        C  0.60170646  0.88375288  0.23075430    -0.22900
C137        C  0.60937167  0.89219202  0.24700111    -0.23100
C138        C  0.59776114  0.90776172  0.25109004    -0.00100
H139        H  0.60681104  0.87079128  0.22391171     0.13600
H140        H  0.62206813  0.88752920  0.25495869     0.13700
N141        N  0.40631189  0.07488535  0.23234514    -0.02600
C142        C  0.40394421  0.08953899  0.21956738     0.00000
C143        C  0.38623480  0.09832209  0.22234172    -0.22900
C144        C  0.37724987  0.08857450  0.23701927    -0.23100
C145        C  0.38989666  0.07437192  0.24291175    -0.00100
H146        H  0.38051845  0.11057411  0.21455003     0.13600
H147        H  0.36308860  0.09155998  0.24283887     0.13700
N148        N  0.57975328  0.07889737  0.24316422    -0.02600
C149        C  0.58070991  0.09590089  0.23363785     0.00000
C150        C  0.59507820  0.10718374  0.24155066    -0.22900
C151        C  0.60334012  0.09679385  0.25637358    -0.23100
C152        C  0.59365561  0.07958260  0.25707671    -0.00100
H153        H  0.59881344  0.12160748  0.23727834     0.13600
H154        H  0.61502093  0.10134294  0.26575198     0.13700
O155        O  0.47369011  0.01262660  0.25160369    -0.72100
O156        O  0.51622310  0.97296392  0.25151514    -0.73100
O157        O  0.51466450  0.01379236  0.25245736    -0.61700
O158        O  0.47516916  0.97182522  0.25094135    -0.70100
O159        O  0.47521301  0.97221468  0.21892532    -0.69700
O160        O  0.51537223  0.01423866  0.22040440    -0.60900
O161        O  0.51640014  0.97347666  0.21951729    -0.73400
O162        O  0.47399801  0.01296388  0.21947830    -0.72200
Cu163      Cu  0.49492101  0.99278620  0.25272297     1.04600
Cu164      Cu  0.49525129  0.99327942  0.21846018     1.04300
C165        C  0.46715339  0.01895441  0.23547224     0.94100
C166        C  0.52305981  0.96689498  0.23549262     0.93200
C167        C  0.52140498  0.02057128  0.23672069     0.85400
C168        C  0.46891827  0.96528436  0.23482308     0.91700
N169        N  0.41979649  0.73547544  0.90497791    -0.02600
C170        C  0.41966908  0.74795733  0.88992183     0.00000
C171        C  0.40405221  0.74463656  0.87790412    -0.22900
C172        C  0.39403726  0.72970192  0.88593619    -0.23100
C173        C  0.40381220  0.72452229  0.90269552    -0.00100
H174        H  0.40003702  0.75264829  0.86506336     0.13600
H175        H  0.38045899  0.72397987  0.88074166     0.13700
N176        N  0.58903005  0.74410718  0.90675790    -0.02600
C177        C  0.60481316  0.73272075  0.90429554     0.00000
C178        C  0.61337302  0.73645648  0.88667594    -0.22900
C179        C  0.60250512  0.75042810  0.87782006    -0.23100
C180        C  0.58782729  0.75488925  0.89042735    -0.00100
H181        H  0.62627028  0.72980227  0.88097211     0.13600
H182        H  0.60521183  0.75692641  0.86387818     0.13700
N183        N  0.42679922  0.72421485  0.08548035    -0.02600
C184        C  0.42826989  0.73331051  0.10277063     0.00000
C185        C  0.41441296  0.72656607  0.11534301    -0.22900
C186        C  0.40401614  0.71295591  0.10547700    -0.23100
C187        C  0.41196201  0.71168885  0.08726252    -0.00100
H188        H  0.41161683  0.73163533  0.12983719     0.13600
H189        H  0.39151408  0.70534851  0.11073868     0.13700
N190        N  0.59383002  0.74199711  0.07609759    -0.02600
C191        C  0.61137226  0.73302565  0.07441035     0.00000
C192        C  0.62515534  0.74337993  0.08467333    -0.22900
C193        C  0.61588702  0.75831537  0.09352246    -0.23100
C194        C  0.59681024  0.75709105  0.08809972    -0.00100
H195        H  0.64053012  0.74072731  0.08547795     0.13600
H196        H  0.62233943  0.76886530  0.10297523     0.13700
O197        O  0.52289174  0.75407464  0.97290491    -0.72100
O198        O  0.48222821  0.74818527  0.01422457    -0.73100
O199        O  0.52310416  0.75274490  0.01409554    -0.61700
O200        O  0.48189791  0.74958133  0.97308883    -0.70100
O201        O  0.48526919  0.71806531  0.97211727    -0.69700
O202        O  0.52717827  0.72129932  0.01325950    -0.60900
O203        O  0.48642422  0.71669626  0.01378417    -0.73400
O204        O  0.52629858  0.72248975  0.97181425    -0.72200
Cu205      Cu  0.50238892  0.75220757  0.99360061     1.04600
Cu206      Cu  0.50639056  0.71852018  0.99268731     1.04300
C207        C  0.53095611  0.73917163  0.96586323     0.94100
C208        C  0.47815906  0.73154024  0.02073110     0.93200
C209        C  0.53176071  0.73766166  0.02014735     0.85400
C210        C  0.47704591  0.73340811  0.96600974     0.91700
N211        N  0.41078287  0.90701365  0.75059296    -0.02600
C212        C  0.40934362  0.89334816  0.76454215     0.00000
C213        C  0.39309660  0.88229981  0.76144507    -0.22900
C214        C  0.38417640  0.88936564  0.74510227    -0.23100
C215        C  0.39532813  0.90439896  0.73870235    -0.00100
H216        H  0.38849699  0.87010964  0.76990831     0.13600
H217        H  0.37086590  0.88425647  0.73868355     0.13700
N218        N  0.58378910  0.91100375  0.75019095    -0.02600
C219        C  0.58517349  0.89725364  0.76409338     0.00000
C220        C  0.60191454  0.88670063  0.76185555    -0.22900
C221        C  0.61111303  0.89401534  0.74592388    -0.23100
C222        C  0.59970248  0.90881640  0.73901532    -0.00100
H223        H  0.60676585  0.87480518  0.77072157     0.13600
H224        H  0.62486972  0.88935228  0.74024105     0.13700
N225        N  0.40599324  0.07659972  0.74086290    -0.02600
C226        C  0.40336411  0.09351702  0.75027554     0.00000
C227        C  0.38500010  0.10060264  0.74657118    -0.22900
C228        C  0.37595644  0.08770054  0.73466701    -0.23100
C229        C  0.38911564  0.07323772  0.73137152    -0.00100
H230        H  0.37891040  0.11388034  0.75182853     0.13600
H231        H  0.36156981  0.08900550  0.72856479     0.13700
N232        N  0.58050082  0.08004035  0.73655092    -0.02600
C233        C  0.58028248  0.09716979  0.74597962     0.00000
C234        C  0.59464464  0.10893487  0.73882356    -0.22900
C235        C  0.60410287  0.09884605  0.72476835    -0.23100
C236        C  0.59520742  0.08127815  0.72366631    -0.00100
H237        H  0.59777748  0.12346203  0.74319441     0.13600
H238        H  0.61633920  0.10367419  0.71643705     0.13700
O239        O  0.51633903  0.97459813  0.75865584    -0.72100
O240        O  0.47464967  0.01492455  0.75807278    -0.73100
O241        O  0.47514020  0.97404320  0.75988548    -0.61700
O242        O  0.51602983  0.01531089  0.75658064    -0.70100
O243        O  0.51494753  0.01343378  0.72469692    -0.69700
O244        O  0.47405917  0.97249660  0.72790754    -0.60900
O245        O  0.47368263  0.01384910  0.72601106    -0.73400
O246        O  0.51529594  0.97261939  0.72673812    -0.72200
Cu247      Cu  0.49556056  0.99478217  0.75937608     1.04600
Cu248      Cu  0.49441014  0.99307233  0.72522379     1.04300
C249        C  0.52251269  0.96720005  0.74295665     0.94100
C250        C  0.46762515  0.02081616  0.74198156     0.93200
C251        C  0.46834886  0.96652108  0.74441108     0.85400
C252        C  0.52211590  0.02082145  0.74003058     0.91700
N253        N  0.40677101  0.23750013  0.91158187    -0.02600
C254        C  0.39031249  0.24800442  0.91274949     0.00000
C255        C  0.37611814  0.24035727  0.90099873    -0.22900
C256        C  0.38416633  0.22468335  0.89208790    -0.23100
C257        C  0.40295809  0.22321300  0.89884997    -0.00100
H258        H  0.36166043  0.24591321  0.89874933     0.13600
H259        H  0.37738600  0.21594593  0.88108857     0.13700
N260        N  0.58305490  0.24064781  0.90396972    -0.02600
C261        C  0.59928650  0.25142872  0.90309353     0.00000
C262        C  0.61055698  0.24586897  0.88768948    -0.22900
C263        C  0.60087448  0.23124400  0.87860696    -0.23100
C264        C  0.58408077  0.22827870  0.88886149    -0.00100
H265        H  0.62438972  0.25173522  0.88360617     0.13600
H266        H  0.60531723  0.22391486  0.86559574     0.13700
N267        N  0.41065819  0.24637429  0.07538405    -0.02600
C268        C  0.39805610  0.26117799  0.07724418     0.00000
C269        C  0.38972302  0.26119454  0.09520843    -0.22900
C270        C  0.39741823  0.24584004  0.10495354    -0.23100
C271        C  0.41004658  0.23651406  0.09251861    -0.00100
H272        H  0.37957513  0.27158106  0.10080693     0.13600
H273        H  0.39467801  0.24262317  0.11997390     0.13700
N274        N  0.58397709  0.24324345  0.07941669    -0.02600
C275        C  0.60066515  0.25351191  0.07983632     0.00000
C276        C  0.61044859  0.25071929  0.09707851    -0.22900
C277        C  0.59960109  0.23834920  0.10778413    -0.23100
C278        C  0.58347078  0.23393412  0.09678209    -0.00100
H279        H  0.62394240  0.25721930  0.10147897     0.13600
H280        H  0.60306714  0.23314137  0.12215959     0.13700
O281        O  0.51935323  0.22827078  0.01304975    -0.72100
O282        O  0.47819019  0.22698511  0.97166333    -0.73100
O283        O  0.51959949  0.22757533  0.97156496    -0.61700
O284        O  0.47794131  0.22817546  0.01263893    -0.70100
O285        O  0.47770993  0.25983639  0.01125597    -0.69700
O286        O  0.51919098  0.25924287  0.97081936    -0.60900
O287        O  0.47794903  0.25866714  0.97017197    -0.73400
O288        O  0.51886408  0.26003026  0.01250454    -0.72200
Cu289      Cu  0.49884821  0.22665958  0.99224854     1.04600
Cu290      Cu  0.49847677  0.26053493  0.99115608     1.04300
C291        C  0.52539889  0.24428696  0.01951231     0.94100
C292        C  0.47133742  0.24251157  0.96454753     0.93200
C293        C  0.52577708  0.24335980  0.96447209     0.85400
C294        C  0.47114170  0.24426475  0.01830796     0.91700
N295        N  0.25219700  0.41508485  0.90570285    -0.02600
C296        C  0.23902541  0.41330605  0.89119086     0.00000
C297        C  0.24390955  0.39831283  0.87919188    -0.22900
C298        C  0.26055289  0.39034548  0.88669383    -0.23100
C299        C  0.26525619  0.40077858  0.90299297    -0.00100
H300        H  0.23614456  0.39364914  0.86641910     0.13600
H301        H  0.26796906  0.37779406  0.88132974     0.13700
N302        N  0.24527540  0.58184691  0.90831925    -0.02600
C303        C  0.25571777  0.59811741  0.90558736     0.00000
C304        C  0.25011659  0.60686143  0.88844651    -0.22900
C305        C  0.23598720  0.59563302  0.88031665    -0.23100
C306        C  0.23325235  0.58046396  0.89279142    -0.00100
H307        H  0.25562286  0.62011885  0.88257161     0.13600
H308        H  0.22839026  0.59830937  0.86683895     0.13700
N309        N  0.26289744  0.41559892  0.08331985    -0.02600
C310        C  0.25473410  0.41587467  0.10107772     0.00000
C311        C  0.26368157  0.40261253  0.11304154    -0.22900
C312        C  0.27779293  0.39381223  0.10220929    -0.23100
C313        C  0.27694644  0.40200011  0.08400326    -0.00100
H314        H  0.26027742  0.39964484  0.12800100     0.13600
H315        H  0.28743190  0.38249827  0.10699762     0.13700
N316        N  0.24450382  0.58358480  0.07999006    -0.02600
C317        C  0.25165666  0.60150289  0.07648381     0.00000
C318        C  0.24269113  0.61457242  0.08862223    -0.22900
C319        C  0.23019249  0.60464035  0.10006937    -0.23100
C320        C  0.23163583  0.58574821  0.09469121    -0.00100
H321        H  0.24508625  0.62984871  0.08931333     0.13600
H322        H  0.22111290  0.61054567  0.11126736     0.13700
O323        O  0.26606544  0.51891479  0.97437377    -0.72100
O324        O  0.26918536  0.47767099  0.01474650    -0.73100
O325        O  0.26767558  0.47816697  0.97335435    -0.61700
O326        O  0.26721514  0.51815285  0.01608227    -0.70100
O327        O  0.23535493  0.51617469  0.01676779    -0.69700
O328        O  0.23574547  0.47724630  0.97413599    -0.60900
O329        O  0.23726410  0.47582442  0.01534590    -0.73400
O330        O  0.23404848  0.51815750  0.97552130    -0.72200
Cu331      Cu  0.26865279  0.49828925  0.99457985     1.04600
Cu332      Cu  0.23452097  0.49681990  0.99542696     1.04300
C333        C  0.24961438  0.52500073  0.96849391     0.94100
C334        C  0.25380318  0.47035773  0.02164076     0.93200
C335        C  0.25168294  0.47129020  0.96708596     0.85400
C336        C  0.25105923  0.52316688  0.02348473     0.91700
N337        N  0.90820964  0.40771048  0.72882398    -0.02600
C338        C  0.89113429  0.40828281  0.73841832     0.00000
C339        C  0.87888747  0.39420112  0.73165837    -0.22900
C340        C  0.88864151  0.38461450  0.71745175    -0.23100
C341        C  0.90652071  0.39317341  0.71587029    -0.00100
H342        H  0.86459547  0.39089311  0.73692203     0.13600
H343        H  0.88351698  0.37226671  0.70954322     0.13700
N344        N  0.90916041  0.57451111  0.73639457    -0.02600
C345        C  0.89575877  0.57698834  0.75042247     0.00000
C346        C  0.88670338  0.59447385  0.74845858    -0.22900
C347        C  0.89480811  0.60317301  0.73264311    -0.23100
C348        C  0.90846619  0.59063619  0.72519994    -0.00100
H349        H  0.87532262  0.60019448  0.75743042     0.13600
H350        H  0.89129589  0.61737554  0.72739547     0.13700
N351        N  0.08152642  0.40389296  0.74766015    -0.02600
C352        C  0.09532773  0.40347608  0.76177975     0.00000
C353        C  0.10559300  0.38651209  0.76112755    -0.22900
C354        C  0.09796137  0.37607808  0.74611396    -0.23100
C355        C  0.08333487  0.38703406  0.73800398    -0.00100
H356        H  0.11741538  0.38223773  0.77053234     0.13600
H357        H  0.10229439  0.36181647  0.74182842     0.13700
N358        N  0.08040401  0.57710505  0.74330807    -0.02600
C359        C  0.09684885  0.57759836  0.75427083     0.00000
C360        C  0.10762587  0.59361062  0.75007489    -0.22900
C361        C  0.09749776  0.60366514  0.73635841    -0.23100
C362        C  0.08084363  0.59345072  0.73244299    -0.00100
H363        H  0.12116804  0.59778324  0.75671717     0.13600
H364        H  0.10168767  0.61721853  0.73006557     0.13700
O365        O  0.97567292  0.46806994  0.75195805    -0.72100
O366        O  0.01497653  0.51082187  0.75619526    -0.73100
O367        O  0.97405008  0.50873130  0.75359536    -0.61700
O368        O  0.01649842  0.46976770  0.75470119    -0.70100
O369        O  0.01808443  0.47027003  0.72274262    -0.69700
O370        O  0.97603334  0.51090359  0.72172896    -0.60900
O371        O  0.01737421  0.51145921  0.72421655    -0.73400
O372        O  0.97666896  0.47023306  0.71995556    -0.72200
Cu373      Cu  0.99528276  0.48930845  0.75518089     1.04600
Cu374      Cu  0.99715419  0.49076540  0.72102221     1.04300
C375        C  0.96976259  0.46268016  0.73527685     0.94100
C376        C  0.02232733  0.51787480  0.74082751     0.93200
C377        C  0.96831367  0.51612765  0.73764817     0.85400
C378        C  0.02378741  0.46343660  0.73903289     0.91700
N379        N  0.74754550  0.40262408  0.90120634    -0.02600
C380        C  0.76058903  0.40014401  0.88683701     0.00000
C381        C  0.75703658  0.38322685  0.87715599    -0.22900
C382        C  0.74141190  0.37489487  0.88599140    -0.23100
C383        C  0.73593399  0.38702748  0.90073172    -0.00100
H384        H  0.76495167  0.37758011  0.86498209     0.13600
H385        H  0.73513885  0.36116037  0.88249169     0.13700
N386        N  0.75019105  0.57438236  0.89846330    -0.02600
C387        C  0.73972727  0.59088811  0.89704547     0.00000
C388        C  0.74374835  0.60000072  0.87971981    -0.22900
C389        C  0.75695574  0.58881510  0.87017705    -0.23100
C390        C  0.76063714  0.57327429  0.88197551    -0.00100
H391        H  0.73791484  0.61354049  0.87470411     0.13600
H392        H  0.76349243  0.59187624  0.85634284     0.13700
N393        N  0.74878468  0.40775452  0.07468288    -0.02600
C394        C  0.76072616  0.40772347  0.09035985     0.00000
C395        C  0.75535567  0.39367227  0.10330782    -0.22900
C396        C  0.73958931  0.38462500  0.09535361    -0.23100
C397        C  0.73594779  0.39336540  0.07774451    -0.00100
H398        H  0.76217507  0.39038712  0.11706076     0.13600
H399        H  0.73203169  0.37250669  0.10141732     0.13700
N400        N  0.76667172  0.57987112  0.06423639    -0.02600
C401        C  0.75776512  0.59725517  0.06224032     0.00000
C402        C  0.76829330  0.61092526  0.07233526    -0.22900
C403        C  0.78376900  0.60180089  0.08081820    -0.23100
C404        C  0.78245662  0.58284314  0.07559933    -0.00100
H405        H  0.76489063  0.62597599  0.07381253     0.13600
H406        H  0.79440279  0.60818194  0.09033685     0.13700
O407        O  0.76688270  0.46851156  0.96395133    -0.72100
O408        O  0.77179324  0.50880741  0.00433571    -0.73100
O409        O  0.76913475  0.46822954  0.00488951    -0.61700
O410        O  0.76900330  0.50942272  0.96349216    -0.70100
O411        O  0.73699503  0.51072318  0.96487912    -0.69700
O412        O  0.73735184  0.47075392  0.00666508    -0.60900
O413        O  0.73999622  0.51162436  0.00618400    -0.73400
O414        O  0.73497195  0.46979884  0.96553234    -0.72200
Cu415      Cu  0.77026857  0.48867986  0.98408739     1.04600
Cu416      Cu  0.73619491  0.49080607  0.98587712     1.04300
C417        C  0.75037423  0.46233229  0.95860270     0.94100
C418        C  0.75693467  0.51690233  0.01148168     0.93200
C419        C  0.75314352  0.46297755  0.01237011     0.85400
C420        C  0.75288884  0.51650830  0.95771258     0.91700
N421        N  0.91281978  0.39900688  0.23623398    -0.02600
C422        C  0.89799074  0.39845074  0.22329959     0.00000
C423        C  0.88563706  0.38354136  0.22750264    -0.22900
C424        C  0.89302785  0.37456028  0.24364231    -0.23100
C425        C  0.90954355  0.38438837  0.24873389    -0.00100
H426        H  0.87239716  0.37994628  0.21995418     0.13600
H427        H  0.88710942  0.36213507  0.25082035     0.13700
N428        N  0.91059498  0.56951725  0.24534293    -0.02600
C429        C  0.89601990  0.57039041  0.23216085     0.00000
C430        C  0.88420266  0.58591782  0.23575461    -0.22900
C431        C  0.89186396  0.59505509  0.25165772    -0.23100
C432        C  0.90812203  0.58480775  0.25715951    -0.00100
H433        H  0.87159274  0.59029392  0.22750038     0.13600
H434        H  0.88665326  0.60822898  0.25799198     0.13700
N435        N  0.08476780  0.40124791  0.23897297    -0.02600
C436        C  0.10061076  0.39930225  0.22772164     0.00000
C437        C  0.10967504  0.38203228  0.23153925    -0.22900
C438        C  0.09893605  0.37298729  0.24553416    -0.23100
C439        C  0.08370995  0.38506134  0.24975925    -0.00100
H440        H  0.12289978  0.37679299  0.22515727     0.13600
H441        H  0.10187687  0.35911027  0.25191507     0.13700
N442        N  0.08360838  0.57111040  0.25059156    -0.02600
C443        C  0.10023715  0.57273654  0.24040647     0.00000
C444        C  0.11079903  0.58824786  0.24677916    -0.22900
C445        C  0.10045459  0.59641642  0.26152699    -0.23100
C446        C  0.08396712  0.58557051  0.26363066    -0.00100
H447        H  0.12477552  0.59278448  0.24161038     0.13600
H448        H  0.10448225  0.60891086  0.26982220     0.13700
O449        O  0.97789925  0.46346970  0.25768299    -0.72100
O450        O  0.01799518  0.50479943  0.26130973    -0.73100
O451        O  0.97677579  0.50433916  0.26061446    -0.61700
O452        O  0.01920507  0.46427409  0.25785999    -0.70100
O453        O  0.01889686  0.46672369  0.22590089    -0.69700
O454        O  0.97728561  0.50644332  0.22867752    -0.60900
O455        O  0.01841244  0.50734731  0.22943972    -0.73400
O456        O  0.97775755  0.46557820  0.22575621    -0.72200
Cu457      Cu  0.99793852  0.48411270  0.26046474     1.04600
Cu458      Cu  0.99806113  0.48660940  0.22635138     1.04300
C459        C  0.97136914  0.45792116  0.24130803     0.94100
C460        C  0.02476520  0.51256319  0.24606623     0.93200
C461        C  0.97059907  0.51200628  0.24488643     0.85400
C462        C  0.02570666  0.45918780  0.24134871     0.91700
N463        N  0.91503269  0.23858788  0.40908456    -0.02600
C464        C  0.91212958  0.25203600  0.39509709     0.00000
C465        C  0.89497984  0.24871937  0.38536251    -0.22900
C466        C  0.88692262  0.23280122  0.39367520    -0.23100
C467        C  0.89948944  0.22680802  0.40808589    -0.00100
H468        H  0.88909566  0.25687573  0.37334838     0.13600
H469        H  0.87314180  0.22650130  0.38993544     0.13700
N470        N  0.92498892  0.22360799  0.58216323    -0.02600
C471        C  0.92716340  0.23247124  0.59961833     0.00000
C472        C  0.91625234  0.22288769  0.61334153    -0.22900
C473        C  0.90689762  0.20819917  0.60412166    -0.23100
C474        C  0.91240320  0.20897930  0.58502382    -0.00100
H475        H  0.91460830  0.22663621  0.62841948     0.13600
H476        H  0.89647189  0.19860200  0.61048625     0.13700
N477        N  0.08742726  0.24086884  0.40296246    -0.02600
C478        C  0.08712143  0.25282765  0.38740922     0.00000
C479        C  0.10294946  0.24952851  0.37580725    -0.22900
C480        C  0.11341299  0.23505078  0.38440108    -0.23100
C481        C  0.10365317  0.23002553  0.40099777    -0.00100
H482        H  0.10642584  0.25681933  0.36245301     0.13600
H483        H  0.12693360  0.22912980  0.37935743     0.13700
N484        N  0.08884694  0.23759964  0.58127164    -0.02600
C485        C  0.08978361  0.24709534  0.59848812     0.00000
C486        C  0.10777624  0.24448726  0.60699013    -0.22900
C487        C  0.11819910  0.23290553  0.59498174    -0.23100
C488        C  0.10632779  0.22882150  0.57947332    -0.00100
H489        H  0.11281396  0.25046352  0.62053491     0.13600
H490        H  0.13281574  0.22782801  0.59736431     0.13700
O491        O  0.98569243  0.22024672  0.47018536    -0.72100
O492        O  0.02602130  0.22046359  0.51307733    -0.73100
O493        O  0.98505629  0.21795984  0.51122109    -0.61700
O494        O  0.02687045  0.22259030  0.47163765    -0.70100
O495        O  0.02478119  0.25416218  0.47270732    -0.69700
O496        O  0.98298051  0.24952555  0.51321781    -0.60900
O497        O  0.02427241  0.25216606  0.51410812    -0.73400
O498        O  0.98345163  0.25178618  0.47216755    -0.72200
Cu499      Cu  0.00602623  0.21924115  0.49145913     1.04600
Cu500      Cu  0.00383832  0.25300825  0.49309522     1.04300
C501        C  0.97792219  0.23600849  0.46464260     0.94100
C502        C  0.03139960  0.23640560  0.52036790     0.93200
C503        C  0.97733659  0.23290832  0.51851568     0.85400
C504        C  0.03238250  0.23900626  0.46564540     0.91700
N505        N  0.99487683  0.35152915  0.31215627    -0.35800
N506        N  0.96563764  0.33279017  0.33559723    -0.56300
N507        N  0.99714895  0.31260889  0.35416356    -0.35800
N508        N  0.02611796  0.33216744  0.33166210    -0.56300
C509        C  0.97882550  0.36183691  0.30811141     0.27800
C510        C  0.01015873  0.36195016  0.30621091     0.27800
C511        C  0.98222896  0.30911478  0.36613760     0.27800
C512        C  0.01354350  0.30872323  0.36415359     0.27800
C513        C  0.95443511  0.33949047  0.32098978     0.36400
C514        C  0.95569467  0.31851440  0.34416022     0.36400
C515        C  0.03557370  0.33900706  0.31609160     0.36400
C516        C  0.03672652  0.31742833  0.33873303     0.36400
C517        C  0.98393214  0.37921911  0.29990291    -0.21000
C518        C  0.00376778  0.37932859  0.29878206    -0.21000
C519        C  0.98919877  0.30352073  0.38413920    -0.21000
C520        C  0.00902577  0.30328420  0.38288992    -0.21000
C521        C  0.93701685  0.32978933  0.32053149    -0.22100
C522        C  0.93782221  0.31643178  0.33525046    -0.22100
C523        C  0.05244516  0.32867176  0.31329372    -0.22100
C524        C  0.05311271  0.31486896  0.32760089    -0.22100
C525        C  0.95991702  0.35441002  0.30836063    -0.17500
C526        C  0.02929471  0.35498435  0.30505991    -0.17500
C527        C  0.03203877  0.30724380  0.35579468    -0.17400
C528        C  0.96279406  0.30771712  0.36005473    -0.17400
H529        H  0.97429162  0.39022812  0.29440436     0.15500
H530        H  0.01242401  0.39051467  0.29237862     0.15500
H531        H  0.98082475  0.29908884  0.39652043     0.15500
H532        H  0.01895360  0.29872153  0.39417259     0.15500
H533        H  0.92511226  0.33193507  0.31051796     0.13700
H534        H  0.92666841  0.30621616  0.33875780     0.13700
H535        H  0.06308138  0.33081033  0.30210520     0.13700
H536        H  0.06441286  0.30429816  0.32965591     0.13700
H537        H  0.99509194  0.33701700  0.31555353     0.27000
H538        H  0.99611507  0.31417818  0.33921161     0.27000
N539        N  0.86509121  0.16227281  0.49199859    -0.35800
N540        N  0.84405630  0.14244724  0.46123083    -0.56300
N541        N  0.82261582  0.12310058  0.49113638    -0.35800
N542        N  0.84475598  0.14168375  0.52180069    -0.56300
C543        C  0.87539920  0.16703306  0.47619331     0.27800
C544        C  0.87622160  0.16621588  0.50765571     0.27800
C545        C  0.81699351  0.11303202  0.47537801     0.27800
C546        C  0.81714815  0.11300900  0.50687034     0.27800
C547        C  0.85244042  0.15639689  0.45062853     0.36400
C548        C  0.82987435  0.13480597  0.45012673     0.36400
C549        C  0.85367904  0.15493917  0.53291046     0.36400
C550        C  0.83020381  0.13439505  0.53245168     0.36400
C551        C  0.89334511  0.17388730  0.48181253    -0.21000
C552        C  0.89394366  0.17319541  0.50167546    -0.21000
C553        C  0.80805424  0.09626685  0.48123286    -0.21000
C554        C  0.80826257  0.09620600  0.50107933    -0.21000
C555        C  0.84392144  0.15728565  0.43244248    -0.22100
C556        C  0.82966935  0.14351921  0.43209016    -0.22100
C557        C  0.84497971  0.15583305  0.55088040    -0.22100
C558        C  0.83004424  0.14285314  0.55056393    -0.22100
C559        C  0.86804001  0.16784852  0.45711625    -0.17500
C560        C  0.86994156  0.16572229  0.52708717    -0.17500
C561        C  0.81759250  0.11972522  0.52613090    -0.17400
C562        C  0.81757146  0.11971893  0.45605986    -0.17400
H563        H  0.90460722  0.17936320  0.47255653     0.15500
H564        H  0.90578877  0.17801866  0.51070287     0.15500
H565        H  0.80143478  0.08545284  0.47223172     0.15500
H566        H  0.80187910  0.08537361  0.51022696     0.15500
H567        H  0.84761888  0.16680394  0.42067147     0.13700
H568        H  0.82018275  0.14037294  0.42001178     0.13700
H569        H  0.84886816  0.16497793  0.56288947     0.13700
H570        H  0.82022443  0.13996892  0.56231629     0.13700
H571        H  0.85037059  0.15949464  0.49209520     0.27000
H572        H  0.82699424  0.13728418  0.49120654     0.27000
N573        N  0.18712068  0.13352758  0.49019599    -0.35800
N574        N  0.16443897  0.15235092  0.46001916    -0.56300
N575        N  0.14360314  0.17181049  0.49020983    -0.35800
N576        N  0.16503612  0.15190605  0.52044008    -0.56300
C577        C  0.19214246  0.12313054  0.47453228     0.27800
C578        C  0.19312421  0.12364338  0.50597327     0.27800
C579        C  0.13293300  0.17635371  0.47439409     0.27800
C580        C  0.13262084  0.17551926  0.50584972     0.27800
C581        C  0.17878510  0.14482428  0.44924273     0.36400
C582        C  0.15632637  0.16658321  0.44939133     0.36400
C583        C  0.17975718  0.14488470  0.53132955     0.36400
C584        C  0.15586579  0.16512933  0.53131040     0.36400
C585        C  0.20123920  0.10636099  0.48044369    -0.21000
C586        C  0.20194690  0.10673058  0.50029295    -0.21000
C587        C  0.11475432  0.18252302  0.48002502    -0.21000
C588        C  0.11462162  0.18216041  0.49991735    -0.21000
C589        C  0.17960254  0.15403354  0.43150699    -0.22100
C590        C  0.16549285  0.16797515  0.43166747    -0.22100
C591        C  0.17966193  0.15330681  0.54944945    -0.22100
C592        C  0.16448776  0.16617758  0.54943807    -0.22100
C593        C  0.19074628  0.12939877  0.45512708    -0.17500
C594        C  0.19266807  0.13041167  0.52518507    -0.17500
C595        C  0.13946728  0.17573125  0.52511788    -0.17400
C596        C  0.14021368  0.17760997  0.45537570    -0.17400
H597        H  0.20731226  0.09529456  0.47137336     0.15500
H598        H  0.20861989  0.09597949  0.50948522     0.15500
H599        H  0.10314659  0.18765767  0.47078225     0.15500
H600        H  0.10288943  0.18695748  0.50898648     0.15500
H601        H  0.18949123  0.15116923  0.41980058     0.13700
H602        H  0.16241433  0.17795908  0.42005314     0.13700
H603        H  0.18946692  0.15045907  0.56138679     0.13700
H604        H  0.16027789  0.17523817  0.56137400     0.13700
H605        H  0.18252981  0.14770382  0.49007455     0.27000
H606        H  0.15846038  0.16957060  0.49039793     0.27000
N607        N  0.87056765  0.48851922  0.16105947    -0.35800
N608        N  0.85381728  0.51948476  0.13902808    -0.56300
N609        N  0.83140535  0.49052401  0.11867154    -0.35800
N610        N  0.84936311  0.45947083  0.13990396    -0.56300
C611        C  0.88164880  0.50348277  0.16638588     0.27800
C612        C  0.88033434  0.47241513  0.16585666     0.27800
C613        C  0.82863512  0.50607075  0.10730240     0.27800
C614        C  0.82552745  0.47509382  0.10847881     0.27800
C615        C  0.86045580  0.52936878  0.15448227     0.36400
C616        C  0.84026357  0.53059590  0.13038067     0.36400
C617        C  0.85554180  0.44926079  0.15540480     0.36400
C618        C  0.83354671  0.45046212  0.13290877     0.36400
C619        C  0.89895370  0.49689643  0.17413829    -0.21000
C620        C  0.89823963  0.47720486  0.17357835    -0.21000
C621        C  0.82138369  0.50040791  0.08946207    -0.21000
C622        C  0.81939811  0.48082047  0.09021880    -0.21000
C623        C  0.85130993  0.54701541  0.15547516    -0.22100
C624        C  0.83862087  0.54787041  0.14004691    -0.22100
C625        C  0.84378339  0.43348209  0.15811909    -0.22100
C626        C  0.82976582  0.43429836  0.14390069    -0.22100
C627        C  0.87499153  0.52253938  0.16726151    -0.17500
C628        C  0.87184727  0.45409003  0.16683118    -0.17500
C629        C  0.82300107  0.45659594  0.11637214    -0.17400
C630        C  0.82954322  0.52521335  0.11380355    -0.17400
H631        H  0.91043190  0.50539689  0.18040021     0.15500
H632        H  0.90903498  0.46753350  0.17948364     0.15500
H633        H  0.81703658  0.50954908  0.07752273     0.15500
H634        H  0.81331420  0.47190711  0.07895496     0.15500
H635        H  0.85346036  0.55806482  0.16620015     0.13700
H636        H  0.82899517  0.55965714  0.13660023     0.13700
H637        H  0.84492932  0.42272553  0.16936371     0.13700
H638        H  0.81805842  0.42424795  0.14200816     0.13700
H639        H  0.85587600  0.48929205  0.15786868     0.27000
H640        H  0.83393104  0.49078086  0.13351157     0.27000
N641        N  0.14265424  0.48956485  0.17754754    -0.35800
N642        N  0.16134030  0.52140900  0.15872852    -0.56300
N643        N  0.18363517  0.49376647  0.13707855    -0.35800
N644        N  0.16387781  0.46173022  0.15470804    -0.56300
C645        C  0.13155045  0.50446569  0.18322831     0.27800
C646        C  0.13228843  0.47347291  0.18045846     0.27800
C647        C  0.18714342  0.51002668  0.12707211     0.27800
C648        C  0.18945628  0.47900683  0.12593330     0.27800
C649        C  0.15351460  0.53067797  0.17392545     0.36400
C650        C  0.17496380  0.53306118  0.15131587     0.36400
C651        C  0.15589408  0.44986479  0.16790122     0.36400
C652        C  0.17897260  0.45224280  0.14683064     0.36400
C653        C  0.11381073  0.49782258  0.18948120    -0.21000
C654        C  0.11425873  0.47824302  0.18769935    -0.21000
C655        C  0.19479132  0.50547541  0.10914694    -0.21000
C656        C  0.19643765  0.48587719  0.10852281    -0.21000
C657        C  0.16213274  0.54842109  0.17614535    -0.22100
C658        C  0.17569879  0.54996698  0.16172774    -0.22100
C659        C  0.16564747  0.43250116  0.16806494    -0.22100
C660        C  0.18034861  0.43403793  0.15473854    -0.22100
C661        C  0.13787077  0.52358950  0.18485835    -0.17500
C662        C  0.13969853  0.45462709  0.17940404    -0.17500
C663        C  0.19097318  0.45982930  0.13217284    -0.17400
C664        C  0.18600756  0.52874246  0.13473167    -0.17400
H665        H  0.10200231  0.50617428  0.19528220     0.15500
H666        H  0.10289895  0.46854474  0.19198552     0.15500
H667        H  0.19948705  0.51529085  0.09800459     0.15500
H668        H  0.20261321  0.47763112  0.09684677     0.15500
H669        H  0.15886731  0.55917432  0.18688523     0.13700
H670        H  0.18500933  0.56210999  0.15919165     0.13700
H671        H  0.16260492  0.42012276  0.17696353     0.13700
H672        H  0.19080637  0.42304384  0.15125618     0.13700
H673        H  0.15739925  0.49011193  0.17482262     0.27000
H674        H  0.18048964  0.49288336  0.15173789     0.27000
N675        N  0.63574692  0.31232645  0.99058446    -0.35800
N676        N  0.65560467  0.33369246  0.02078381    -0.56300
N677        N  0.67619648  0.35328483  0.99059591    -0.35800
N678        N  0.65548205  0.33296987  0.96021541    -0.56300
C679        C  0.62554043  0.30704839  0.00630828     0.27800
C680        C  0.62564038  0.30665070  0.97481849     0.27800
C681        C  0.68030271  0.36424042  0.00617835     0.27800
C682        C  0.68021242  0.36381454  0.97471153     0.27800
C683        C  0.64798559  0.31948354  0.03156355     0.36400
C684        C  0.66980915  0.34171171  0.03154066     0.36400
C685        C  0.64802993  0.31845789  0.94964620     0.36400
C686        C  0.66998291  0.34059971  0.94973309     0.36400
C687        C  0.60864192  0.29807368  0.00040576    -0.21000
C688        C  0.60864497  0.29796486  0.98055060    -0.21000
C689        C  0.68655112  0.38209660  0.00013975    -0.21000
C690        C  0.68642797  0.38185463  0.98024044    -0.21000
C691        C  0.65708593  0.31875569  0.04949304    -0.22100
C692        C  0.67106869  0.33272249  0.04939670    -0.22100
C693        C  0.65751535  0.31710966  0.93213389    -0.22100
C694        C  0.67153256  0.33106223  0.93223275    -0.22100
C695        C  0.63238295  0.30779310  0.02561914    -0.17500
C696        C  0.63264636  0.30662318  0.95567898    -0.17500
C697        C  0.68126500  0.35645441  0.95572120    -0.17400
C698        C  0.68089922  0.35759867  0.02549692    -0.17400
H699        H  0.59776573  0.29151312  0.00937022     0.15500
H700        H  0.59781804  0.29138199  0.97139021     0.15500
H701        H  0.69139796  0.39380375  0.00915112     0.15500
H702        H  0.69127696  0.39330010  0.97089901     0.15500
H703        H  0.65403103  0.30916356  0.06138932     0.13700
H704        H  0.68091066  0.33594926  0.06115981     0.13700
H705        H  0.65482251  0.30695693  0.92064128     0.13700
H706        H  0.68175621  0.33371601  0.92078289     0.13700
H707        H  0.65008753  0.31663272  0.99067688     0.27000
H708        H  0.67402641  0.33855559  0.99078479     0.27000
N709        N  0.86394061  0.48659818  0.81074345    -0.35800
N710        N  0.84387196  0.45630409  0.83159374    -0.56300
N711        N  0.82399966  0.48632913  0.85215358    -0.35800
N712        N  0.84507238  0.51650010  0.83236305    -0.56300
C713        C  0.87405826  0.47095960  0.80531628     0.27800
C714        C  0.87422351  0.50212445  0.80536094     0.27800
C715        C  0.81901292  0.47068326  0.86248283     0.27800
C716        C  0.81991102  0.50178182  0.86311051     0.27800
C717        C  0.85116176  0.44608254  0.81671024     0.36400
C718        C  0.82917738  0.44596516  0.83908847     0.36400
C719        C  0.85205350  0.52708457  0.81760038     0.36400
C720        C  0.83083619  0.52696018  0.84049149     0.36400
C721        C  0.89119050  0.47664768  0.79673803    -0.21000
C722        C  0.89136441  0.49631531  0.79693065    -0.21000
C723        C  0.81223831  0.47624458  0.88046214    -0.21000
C724        C  0.81268067  0.49592677  0.88079584    -0.21000
C725        C  0.84148773  0.42881701  0.81513393    -0.22100
C726        C  0.82750071  0.42877124  0.82926861    -0.22100
C727        C  0.84253670  0.54456651  0.81666834    -0.22100
C728        C  0.82910546  0.54450368  0.83123979    -0.22100
C729        C  0.86659047  0.45217065  0.80478393    -0.17500
C730        C  0.86713638  0.52112624  0.80526343    -0.17500
C731        C  0.81957378  0.52080032  0.85626655    -0.17400
C732        C  0.81760155  0.45198469  0.85485547    -0.17400
H733        H  0.90203090  0.46766099  0.79012403     0.15500
H734        H  0.90232454  0.50532135  0.79057350     0.15500
H735        H  0.80656208  0.46710535  0.89172204     0.15500
H736        H  0.80743279  0.50494685  0.89234502     0.15500
H737        H  0.84409255  0.41753969  0.80476296     0.13700
H738        H  0.81717412  0.41747820  0.83183406     0.13700
H739        H  0.84480505  0.55605780  0.80642081     0.13700
H740        H  0.81905170  0.55593706  0.83447140     0.13700
H741        H  0.84945431  0.48668276  0.81458293     0.27000
H742        H  0.82661618  0.48660028  0.83736064     0.27000
N743        N  0.99930540  0.35073700  0.67016926    -0.35800
N744        N  0.03000431  0.32540954  0.65782025    -0.56300
N745        N  0.00164324  0.30285305  0.63748317    -0.35800
N746        N  0.97081239  0.32693893  0.65005771    -0.56300
C747        C  0.01368958  0.35628386  0.68230986     0.27800
C748        C  0.98256126  0.35763547  0.67742503     0.27800
C749        C  0.01719388  0.29116594  0.63821195     0.27800
C750        C  0.98596339  0.29156042  0.63547332     0.27800
C751        C  0.04087904  0.33882724  0.66665961     0.36400
C752        C  0.04208306  0.31450588  0.64719084     0.36400
C753        C  0.95984354  0.34237973  0.65409736     0.36400
C754        C  0.96132490  0.31680034  0.63635233     0.36400
C755        C  0.00598254  0.36753993  0.69689786    -0.21000
C756        C  0.98642633  0.36826202  0.69391476    -0.21000
C757        C  0.01141867  0.27224341  0.63712921    -0.21000
C758        C  0.99162984  0.27246603  0.63589767    -0.21000
C759        C  0.06012974  0.33629091  0.66178190    -0.22100
C760        C  0.06084183  0.32102157  0.64916992    -0.22100
C761        C  0.94321896  0.34221776  0.64282356    -0.22100
C762        C  0.94442074  0.32623787  0.63114023    -0.22100
C763        C  0.03366264  0.35199524  0.68039289    -0.17500
C764        C  0.96388935  0.35522854  0.66931062    -0.17500
C765        C  0.96726224  0.29828941  0.63045206    -0.17400
C766        C  0.03643024  0.29745577  0.63786535    -0.17400
H767        H  0.01356900  0.37467420  0.70853184     0.15500
H768        H  0.97626044  0.37595483  0.70285776     0.15500
H769        H  0.02045599  0.25958362  0.63700497     0.15500
H770        H  0.98252334  0.25997689  0.63457153     0.15500
H771        H  0.07241958  0.34435457  0.66695127     0.13700
H772        H  0.07374306  0.31485888  0.64295243     0.13700
H773        H  0.93146601  0.35247162  0.64308962     0.13700
H774        H  0.93373427  0.32171342  0.62062953     0.13700
H775        H  0.00086269  0.34382630  0.65698774     0.27000
H776        H  0.00206633  0.31762965  0.63538005     0.27000
N777        N  0.12837269  0.49395829  0.82120189    -0.35800
N778        N  0.14770943  0.52429632  0.84304040    -0.56300
N779        N  0.16795652  0.49449369  0.86362860    -0.35800
N780        N  0.14780077  0.46402692  0.84312429    -0.56300
C781        C  0.11826948  0.50961364  0.81548893     0.27800
C782        C  0.11805504  0.47840698  0.81580377     0.27800
C783        C  0.17291771  0.50995059  0.87424430     0.27800
C784        C  0.17305773  0.47885225  0.87398445     0.27800
C785        C  0.14026489  0.53479607  0.82831028     0.36400
C786        C  0.16171917  0.53500044  0.85139302     0.36400
C787        C  0.14049508  0.45348511  0.82841883     0.36400
C788        C  0.16278587  0.45393758  0.85070543     0.36400
C789        C  0.10122330  0.50393633  0.80655481    -0.21000
C790        C  0.10100185  0.48426984  0.80693626    -0.21000
C791        C  0.18075220  0.50408129  0.89179206    -0.21000
C792        C  0.18080437  0.48439770  0.89164838    -0.21000
C793        C  0.14905085  0.55260058  0.82778052    -0.22100
C794        C  0.16270676  0.55270169  0.84239717    -0.22100
C795        C  0.15052951  0.43633858  0.82702153    -0.22100
C796        C  0.16470884  0.43665594  0.84111379    -0.22100
C797        C  0.12535948  0.52857461  0.81567958    -0.17500
C798        C  0.12482468  0.45925540  0.81638752    -0.17500
C799        C  0.17459198  0.46027210  0.86621727    -0.17400
C800        C  0.17341414  0.52886425  0.86713425    -0.17400
H801        H  0.09032601  0.51294167  0.79984646     0.15500
H802        H  0.08992655  0.47529966  0.80062369     0.15500
H803        H  0.18677207  0.51304716  0.90304617     0.15500
H804        H  0.18701104  0.47520700  0.90270761     0.15500
H805        H  0.14605294  0.56422998  0.81781615     0.13700
H806        H  0.17232339  0.56438162  0.84591367     0.13700
H807        H  0.14814666  0.42496892  0.81668957     0.13700
H808        H  0.17532829  0.42554438  0.84381977     0.13700
H809        H  0.14273348  0.49391718  0.82553721     0.27000
H810        H  0.16498912  0.49455934  0.84890600     0.27000
N811        N  0.37019584  0.32499044  0.98892490    -0.35800
N812        N  0.34924103  0.34442698  0.95843963    -0.56300
N813        N  0.32902821  0.36519100  0.98912036    -0.35800
N814        N  0.35138046  0.34640461  0.01923550    -0.56300
C815        C  0.37953571  0.31878131  0.97307420     0.27800
C816        C  0.38122079  0.32027771  0.00439148     0.27800
C817        C  0.32412249  0.37541725  0.97318903     0.27800
C818        C  0.32470552  0.37605166  0.00471641     0.27800
C819        C  0.35560607  0.32901593  0.94845788     0.36400
C820        C  0.33437759  0.35203760  0.94817765     0.36400
C821        C  0.35909970  0.33192290  0.02976431     0.36400
C822        C  0.33697657  0.35391823  0.02992864     0.36400
C823        C  0.39704626  0.31056471  0.97843355    -0.21000
C824        C  0.39816279  0.31160113  0.99827346    -0.21000
C825        C  0.31689834  0.39312234  0.97873402    -0.21000
C826        C  0.31722274  0.39349380  0.99863970    -0.21000
C827        C  0.34514134  0.32714249  0.93142663    -0.22100
C828        C  0.33172120  0.34181468  0.93119607    -0.22100
C829        C  0.34978657  0.33043536  0.04738598    -0.22100
C830        C  0.33576784  0.34443321  0.04750502    -0.22100
C831        C  0.37076648  0.31678313  0.95476799    -0.17500
C832        C  0.37460496  0.32026445  0.02361592    -0.17500
C833        C  0.32552159  0.36974918  0.02417119    -0.17400
C834        C  0.32335319  0.36812827  0.95409857    -0.17400
H835        H  0.40729762  0.30344260  0.96911225     0.15500
H836        H  0.40946918  0.30544793  0.00725688     0.15500
H837        H  0.31127592  0.40432355  0.96939581     0.15500
H838        H  0.31201322  0.40504952  0.00762439     0.15500
H839        H  0.34688004  0.31627709  0.92044182     0.13700
H840        H  0.32099784  0.34441293  0.92001903     0.13700
H841        H  0.35266069  0.32025305  0.05888197     0.13700
H842        H  0.32573389  0.34719538  0.05910884     0.13700
H843        H  0.35558373  0.32848648  0.98939409     0.27000
H844        H  0.33223926  0.35062490  0.98937225     0.27000
N845        N  0.49128596  0.13960426  0.80218211    -0.35800
N846        N  0.52209883  0.15714031  0.82477882    -0.56300
N847        N  0.49210548  0.17603016  0.84743740    -0.35800
N848        N  0.46170127  0.15744056  0.82604373    -0.56300
C849        C  0.50676601  0.13791389  0.79044784     0.27800
C850        C  0.47544072  0.13882704  0.79063063     0.27800
C851        C  0.50828437  0.18052772  0.85752090     0.27800
C852        C  0.47695872  0.17916996  0.85933773     0.27800
C853        C  0.53283331  0.15004366  0.81011730     0.36400
C854        C  0.53256049  0.17130443  0.83306605     0.36400
C855        C  0.44988928  0.14826436  0.81354457     0.36400
C856        C  0.45027512  0.16730873  0.83829074     0.36400
C857        C  0.50072629  0.13764852  0.77129819    -0.21000
C858        C  0.48092351  0.13740432  0.77145035    -0.21000
C859        C  0.50343766  0.18623172  0.87604619    -0.21000
C860        C  0.48369354  0.18531973  0.87721640    -0.21000
C861        C  0.54968832  0.16064755  0.80848972    -0.22100
C862        C  0.54972275  0.17373538  0.82329156    -0.22100
C863        C  0.43078742  0.15212179  0.81790663    -0.22100
C864        C  0.43102232  0.16450848  0.83335613    -0.22100
C865        C  0.52616964  0.13606923  0.79669653    -0.17500
C866        C  0.45615575  0.13837705  0.79696183    -0.17500
C867        C  0.45713506  0.17822152  0.85416690    -0.17400
C868        C  0.52708690  0.18150077  0.84982159    -0.17400
H869        H  0.50970339  0.13696604  0.75856155     0.15500
H870        H  0.47167648  0.13646934  0.75881988     0.15500
H871        H  0.51310779  0.19098981  0.88741059     0.15500
H872        H  0.47520080  0.18918858  0.88970601     0.15500
H873        H  0.56028390  0.16010145  0.79708328     0.13700
H874        H  0.56078919  0.18428462  0.82611514     0.13700
H875        H  0.41806707  0.14733141  0.81015072     0.13700
H876        H  0.41840087  0.17069354  0.84005822     0.13700
H877        H  0.49149467  0.13892725  0.81725848     0.27000
H878        H  0.49143894  0.17351891  0.83261520     0.27000
N879        N  0.49472013  0.12764531  0.16636317    -0.35800
N880        N  0.46521171  0.14929145  0.14524887    -0.56300
N881        N  0.49477078  0.17394854  0.13039354    -0.35800
N882        N  0.52414502  0.15334578  0.15174806    -0.56300
C883        C  0.47847537  0.12073895  0.17459143     0.27800
C884        C  0.50961225  0.12317427  0.17838071     0.27800
C885        C  0.47847206  0.18440119  0.12787928     0.27800
C886        C  0.50965691  0.18639318  0.13038188     0.27800
C887        C  0.45446483  0.13441021  0.15134947     0.36400
C888        C  0.45471850  0.15862756  0.13158407     0.36400
C889        C  0.53573753  0.14099861  0.16144726     0.36400
C890        C  0.53575181  0.16467601  0.14108824     0.36400
C891        C  0.48321369  0.11112806  0.19156806    -0.21000
C892        C  0.50279722  0.11255616  0.19388974    -0.21000
C893        C  0.48305070  0.20371584  0.12712959    -0.21000
C894        C  0.50278153  0.20491923  0.12809558    -0.21000
C895        C  0.43701378  0.13412007  0.14145115    -0.22100
C896        C  0.43735597  0.14921133  0.12855362    -0.22100
C897        C  0.55489584  0.14454431  0.15698176    -0.22100
C898        C  0.55488901  0.15945457  0.14389031    -0.22100
C899        C  0.45944143  0.12257213  0.16721384    -0.17500
C900        C  0.52926955  0.12805505  0.17573657    -0.17500
C901        C  0.52930585  0.18120929  0.13117631    -0.17400
C902        C  0.45999748  0.17670176  0.12391959    -0.17400
H903        H  0.47358538  0.10380124  0.20135906     0.15500
H904        H  0.51100096  0.10646674  0.20579354     0.15500
H905        H  0.47324921  0.21569131  0.12524420     0.15500
H906        H  0.51101835  0.21799719  0.12715351     0.15500
H907        H  0.42524177  0.12417950  0.14346088     0.13700
H908        H  0.42584317  0.15311955  0.11862753     0.13700
H909        H  0.56756418  0.13746728  0.16289184     0.13700
H910        H  0.56752736  0.16628765  0.13791468     0.13700
H911        H  0.49569518  0.13395939  0.15279200     0.27000
H912        H  0.49593205  0.15909980  0.12943899     0.27000
N913        N  0.32612398  0.98370422  0.62406923    -0.35800
N914        N  0.34459900  0.95358862  0.64662756    -0.56300
N915        N  0.36300141  0.98381049  0.66858235    -0.35800
N916        N  0.34549056  0.01364929  0.64532167    -0.56300
C917        C  0.32193251  0.96796890  0.61358657     0.27800
C918        C  0.32267133  0.99905804  0.61261443     0.27800
C919        C  0.37292413  0.96824321  0.67469700     0.27800
C920        C  0.37305009  0.99931443  0.67440254     0.27800
C921        C  0.33023108  0.94346318  0.63822169     0.36400
C922        C  0.35069433  0.94342326  0.66219802     0.36400
C923        C  0.33195000  0.02421056  0.63597290     0.36400
C924        C  0.35169014  0.02424391  0.66044202     0.36400
C925        C  0.31612692  0.97334133  0.59510405    -0.21000
C926        C  0.31673886  0.99300822  0.59444434    -0.21000
C927        C  0.38974637  0.97392718  0.68406304    -0.21000
C928        C  0.38976601  0.99359338  0.68395748    -0.21000
C929        C  0.32750197  0.92645055  0.64817593    -0.22100
C930        C  0.34052674  0.92641990  0.66341822    -0.22100
C931        C  0.32984098  0.04181652  0.64495389    -0.22100
C932        C  0.34241346  0.04184235  0.66047922    -0.22100
C933        C  0.32007892  0.94941598  0.62139429    -0.17500
C934        C  0.32196216  0.01816822  0.61915100    -0.17500
C935        C  0.36597641  0.01822017  0.67382439    -0.17400
C936        C  0.36551676  0.94946150  0.67498593    -0.17400
H937        H  0.31111362  0.96410748  0.58358941     0.15500
H938        H  0.31229327  0.00188016  0.58233589     0.15500
H939        H  0.40034702  0.96484774  0.69117519     0.15500
H940        H  0.40038465  0.00265394  0.69089864     0.15500
H941        H  0.31716975  0.91532530  0.64486136     0.13700
H942        H  0.34219660  0.91529494  0.67423251     0.13700
H943        H  0.32014825  0.05335575  0.64089140     0.13700
H944        H  0.34438919  0.05339833  0.67068724     0.13700
H945        H  0.32776728  0.98402475  0.63902015     0.27000
H946        H  0.34868137  0.98389785  0.66397271     0.27000
N947        N  0.50130428  0.82030140  0.86583310    -0.35800
N948        N  0.53056055  0.84368855  0.84759764    -0.56300
N949        N  0.49908355  0.86202324  0.82675179    -0.35800
N950        N  0.46982972  0.83944609  0.84593732    -0.56300
C951        C  0.51722287  0.81566162  0.87623195     0.27800
C952        C  0.48593309  0.81358923  0.87560256     0.27800
C953        C  0.51403987  0.87381620  0.82306085     0.27800
C954        C  0.48271777  0.87171862  0.82230854     0.27800
C955        C  0.54162123  0.82901893  0.85410430     0.36400
C956        C  0.54045328  0.85208673  0.83311098     0.36400
C957        C  0.46053955  0.82366405  0.85228534     0.36400
C958        C  0.45925556  0.84665802  0.83107158     0.36400
C959        C  0.51192431  0.80635924  0.89310598    -0.21000
C960        C  0.49210279  0.80517597  0.89278495    -0.21000
C961        C  0.50711844  0.89140162  0.81672046    -0.21000
C962        C  0.48728977  0.89010878  0.81632181    -0.21000
C963        C  0.55891850  0.82843509  0.84416866    -0.22100
C964        C  0.55814942  0.84304741  0.83076863    -0.22100
C965        C  0.44370026  0.82104247  0.84166143    -0.22100
C966        C  0.44286842  0.83565662  0.82821837    -0.22100
C967        C  0.53613003  0.81627257  0.86894147    -0.17500
C968        C  0.46716840  0.81188399  0.86771156    -0.17500
C969        C  0.46431247  0.86324664  0.82043587    -0.17400
C970        C  0.53352979  0.86791780  0.82225902    -0.17400
H971        H  0.52140798  0.80009784  0.90393437     0.15500
H972        H  0.48332558  0.79785235  0.90335689     0.15500
H973        H  0.51553128  0.90353415  0.81194942     0.15500
H974        H  0.47740940  0.90105191  0.81113704     0.15500
H975        H  0.57068758  0.81835899  0.84615247     0.13700
H976        H  0.56921109  0.84641544  0.82033379     0.13700
H977        H  0.43324331  0.80968676  0.84325775     0.13700
H978        H  0.43165820  0.83774442  0.81742258     0.13700
H979        H  0.50124075  0.82431278  0.85135646     0.27000
H980        H  0.50011778  0.84728996  0.82867817     0.27000
N981        N  0.36692098  0.66650327  0.99315151    -0.35800
N982        N  0.34002691  0.65367072  0.96290870    -0.56300
N983        N  0.31644580  0.63637778  0.99199742    -0.35800
N984        N  0.34206694  0.64989878  0.02235075    -0.56300
C985        C  0.37307382  0.67701586  0.97794387     0.27800
C986        C  0.37428013  0.67464956  0.00936223     0.27800
C987        C  0.30439600  0.63603321  0.97649810     0.27800
C988        C  0.30533200  0.63496835  0.00794119     0.27800
C989        C  0.35378819  0.66141401  0.95161895     0.36400
C990        C  0.32776386  0.64421148  0.95100059     0.36400
C991        C  0.35749818  0.65436216  0.03350586     0.36400
C992        C  0.33112905  0.63764776  0.03269521     0.36400
C993        C  0.38501744  0.69155621  0.98453092    -0.21000
C994        C  0.38580786  0.69004275  0.00430167    -0.21000
C995        C  0.28545920  0.63451515  0.98265291    -0.21000
C996        C  0.28600829  0.63440127  0.00246511    -0.21000
C997        C  0.35012042  0.65705059  0.93237417    -0.22100
C998        C  0.33368771  0.64601625  0.93200239    -0.22100
C999        C  0.35644054  0.64489646  0.05108319    -0.22100
C1000       C  0.33997049  0.63389456  0.05037877    -0.22100
C1001       C  0.36850632  0.67384204  0.95821663    -0.17500
C1002       C  0.37133040  0.66832645  0.02859464    -0.17500
C1003       C  0.31233108  0.63182661  0.02701622    -0.17400
C1004       C  0.31023284  0.63585342  0.95698518    -0.17400
H1005       H  0.39236202  0.70227211  0.97600229     0.15500
H1006       H  0.39395717  0.69930944  0.01382851     0.15500
H1007       H  0.27249634  0.63352044  0.97391893     0.15500
H1008       H  0.27354115  0.63334019  0.01175330     0.15500
H1009       H  0.35823138  0.66166352  0.91988299     0.13700
H1010       H  0.32650262  0.64062128  0.91918841     0.13700
H1011       H  0.36640825  0.64590873  0.06316192     0.13700
H1012       H  0.33471572  0.62482476  0.06189223     0.13700
H1013       H  0.35928110  0.65376251  0.99238524     0.27000
H1014       H  0.33140766  0.63486699  0.99161580     0.27000
N1015       N  0.50523823  0.80908459  0.12773521    -0.35800
N1016       N  0.53378152  0.83488085  0.14375621    -0.56300
N1017       N  0.50219186  0.85434562  0.16306994    -0.35800
N1018       N  0.47341758  0.82965268  0.14587436    -0.56300
C1019       C  0.52098229  0.80430379  0.11730446     0.27800
C1020       C  0.48976484  0.80132402  0.11873579     0.27800
C1021       C  0.51707077  0.86635256  0.16645291     0.27800
C1022       C  0.48577478  0.86396987  0.16724415     0.27800
C1023       C  0.54568743  0.82107463  0.13704738     0.36400
C1024       C  0.54402048  0.84500613  0.15688829     0.36400
C1025       C  0.46410881  0.81350091  0.14048993     0.36400
C1026       C  0.46241745  0.83823735  0.15947741     0.36400
C1027       C  0.51541210  0.79364927  0.10133582    -0.21000
C1028       C  0.49572185  0.79168636  0.10228854    -0.21000
C1029       C  0.51006611  0.88396122  0.17243855    -0.21000
C1030       C  0.49026853  0.88249590  0.17283852    -0.21000
C1031       C  0.56380473  0.82276815  0.14550850    -0.22100
C1032       C  0.56271808  0.83791413  0.15820224    -0.22100
C1033       C  0.44678248  0.81207519  0.15028516    -0.22100
C1034       C  0.44574403  0.82771936  0.16239358    -0.22100
C1035       C  0.54034838  0.80733147  0.12303956    -0.17500
C1036       C  0.47096137  0.80043223  0.12644222    -0.17500
C1037       C  0.46732147  0.85556141  0.16898660    -0.17400
C1038       C  0.53666153  0.86081884  0.16726289    -0.17400
H1039       H  0.52466097  0.78731520  0.09051546     0.15500
H1040       H  0.48690482  0.78350022  0.09235171     0.15500
H1041       H  0.51841955  0.89627881  0.17687426     0.15500
H1042       H  0.48035834  0.89348963  0.17765056     0.15500
H1043       H  0.57638276  0.81390409  0.14295288     0.13700
H1044       H  0.57433000  0.84311187  0.16731561     0.13700
H1045       H  0.43610910  0.80087144  0.14895657     0.13700
H1046       H  0.43412788  0.83089353  0.17228667     0.13700
H1047       H  0.50535625  0.81456066  0.14170258     0.27000
H1048       H  0.50340309  0.83959294  0.16149888     0.27000
N1049       N  0.32421557  0.98884312  0.35141136    -0.35800
N1050       N  0.34569519  0.95855197  0.33213405    -0.56300
N1051       N  0.36423894  0.98861972  0.31022025    -0.35800
N1052       N  0.34371936  0.01867200  0.33036061    -0.56300
C1053       C  0.32069945  0.97344652  0.36268664     0.27800
C1054       C  0.31952695  0.00456672  0.36175365     0.27800
C1055       C  0.37506478  0.97319275  0.30559497     0.27800
C1056       C  0.37416325  0.00433282  0.30479539     0.27800
C1057       C  0.33089067  0.94844513  0.33968868     0.36400
C1058       C  0.35254109  0.94832604  0.31703014     0.36400
C1059       C  0.32868236  0.02873693  0.33748341     0.36400
C1060       C  0.35034360  0.02864150  0.31504019     0.36400
C1061       C  0.31426565  0.97946982  0.38064294    -0.21000
C1062       C  0.31347513  0.99915789  0.38003001    -0.21000
C1063       C  0.39244869  0.97919664  0.29779837    -0.21000
C1064       C  0.39178342  0.99889895  0.29710973    -0.21000
C1065       C  0.32848067  0.93156053  0.32948371    -0.22100
C1066       C  0.34226587  0.93143980  0.31518896    -0.22100
C1067       C  0.32590076  0.04536395  0.32680976    -0.22100
C1068       C  0.33974954  0.04535727  0.31261487    -0.22100
C1069       C  0.31988811  0.95440948  0.35585994    -0.17500
C1070       C  0.31818808  0.02327720  0.35406097    -0.17500
C1071       C  0.36618236  0.02290398  0.30366559    -0.17400
C1072       C  0.36803549  0.95421433  0.30509747    -0.17400
H1073       H  0.30964562  0.97054798  0.39255753     0.15500
H1074       H  0.30825080  0.00839464  0.39141344     0.15500
H1075       H  0.40384426  0.97027610  0.29203140     0.15500
H1076       H  0.40257751  0.00811297  0.29077539     0.15500
H1077       H  0.31776011  0.92059841  0.33187619     0.13700
H1078       H  0.34418352  0.92039023  0.30443150     0.13700
H1079       H  0.31505579  0.05632587  0.32900474     0.13700
H1080       H  0.34171225  0.05630707  0.30170846     0.13700
H1081       H  0.32639245  0.98848349  0.33653663     0.27000
H1082       H  0.34959244  0.98833227  0.31345374     0.27000
N1083       N  0.17442660  0.85361730  0.48525036    -0.35800
N1084       N  0.15530135  0.83172302  0.45565462    -0.56300
N1085       N  0.13619091  0.81064726  0.48662207    -0.35800
N1086       N  0.15437022  0.83385744  0.51636995    -0.56300
C1087       C  0.17844666  0.86397893  0.46923540     0.27800
C1088       C  0.17794711  0.86498198  0.50064028     0.27800
C1089       C  0.12674789  0.80378253  0.47091607     0.27800
C1090       C  0.12633025  0.80488777  0.50243872     0.27800
C1091       C  0.16890725  0.84021131  0.44463129     0.36400
C1092       C  0.14826721  0.81690838  0.44530250     0.36400
C1093       C  0.16840906  0.84266708  0.52672815     0.36400
C1094       C  0.14740748  0.81958733  0.52759762     0.36400
C1095       C  0.18414409  0.88224417  0.47446740    -0.21000
C1096       C  0.18372658  0.88291873  0.49432792    -0.21000
C1097       C  0.11056693  0.79373779  0.47681988    -0.21000
C1098       C  0.11028870  0.79446374  0.49668825    -0.21000
C1099       C  0.17023850  0.83101753  0.42696619    -0.22100
C1100       C  0.15705009  0.81629932  0.42733998    -0.22100
C1101       C  0.17005412  0.83421339  0.54484701    -0.22100
C1102       C  0.15663092  0.81968885  0.54544303    -0.22100
C1103       C  0.17956070  0.85652148  0.45033747    -0.17500
C1104       C  0.17932471  0.85846856  0.51995404    -0.17500
C1105       C  0.13284796  0.80653254  0.52181931    -0.17400
C1106       C  0.13363744  0.80432589  0.45168771    -0.17400
H1107       H  0.18886094  0.89362619  0.46497544     0.15500
H1108       H  0.18821606  0.89488227  0.50317497     0.15500
H1109       H  0.10039660  0.78604651  0.46780564     0.15500
H1110       H  0.09988209  0.78743886  0.50588645     0.15500
H1111       H  0.17966404  0.83455263  0.41507083     0.13700
H1112       H  0.15433542  0.80623254  0.41577401     0.13700
H1113       H  0.17997848  0.83793827  0.55637915     0.13700
H1114       H  0.15420391  0.81007527  0.55747765     0.13700
H1115       H  0.17285276  0.83886511  0.48579867     0.27000
H1116       H  0.14999396  0.81623556  0.48664896     0.27000
N1117       N  0.99420539  0.66464188  0.35807713    -0.35800
N1118       N  0.02407685  0.64148432  0.34084207    -0.56300
N1119       N  0.99347601  0.62144049  0.32075033    -0.35800
N1120       N  0.96349272  0.64395761  0.33877723    -0.56300
C1121       C  0.00986584  0.66935156  0.36879002     0.27800
C1122       C  0.97845699  0.67019721  0.36804339     0.27800
C1123       C  0.00885123  0.60995234  0.31753484     0.27800
C1124       C  0.97749105  0.61132548  0.31625026     0.27800
C1125       C  0.03478767  0.65637913  0.34712967     0.36400
C1126       C  0.03447068  0.63265613  0.32699294     0.36400
C1127       C  0.95370546  0.65971542  0.34452121     0.36400
C1128       C  0.95331701  0.63619128  0.32400533     0.36400
C1129       C  0.00404887  0.67753086  0.38603923    -0.21000
C1130       C  0.98415534  0.67779862  0.38570577    -0.21000
C1131       C  0.00257342  0.59210307  0.31150319    -0.21000
C1132       C  0.98271801  0.59297504  0.31067399    -0.21000
C1133       C  0.05234618  0.65672884  0.33764850    -0.22100
C1134       C  0.05212059  0.64169502  0.32479543    -0.22100
C1135       C  0.93700939  0.66183339  0.33349982    -0.22100
C1136       C  0.93675196  0.64687665  0.32050225    -0.22100
C1137       C  0.02892242  0.66914005  0.36179307    -0.17500
C1138       C  0.95969543  0.67171217  0.35994884    -0.17500
C1139       C  0.95882273  0.61929814  0.31415441    -0.17400
C1140       C  0.02812343  0.61637178  0.31667307    -0.17400
H1141       H  0.01315228  0.68344666  0.39729602     0.15500
H1142       H  0.97497223  0.68409149  0.39660491     0.15500
H1143       H  0.01143164  0.58010462  0.30709285     0.15500
H1144       H  0.97325871  0.58173941  0.30557153     0.15500
H1145       H  0.06400657  0.66681342  0.33967458     0.13700
H1146       H  0.06354749  0.63799411  0.31486820     0.13700
H1147       H  0.92625617  0.67305561  0.33453527     0.13700
H1148       H  0.92575704  0.64427437  0.30962955     0.13700
H1149       H  0.99438026  0.66120847  0.34344055     0.27000
H1150       H  0.99401188  0.63621954  0.32241923     0.27000
N1151       N  0.82056987  0.85805153  0.49166045    -0.35800
N1152       N  0.84244334  0.83761130  0.52063987    -0.56300
N1153       N  0.85993629  0.81551370  0.48969864    -0.35800
N1154       N  0.84024262  0.83785962  0.45994101    -0.56300
C1155       C  0.81492328  0.86780436  0.50759219     0.27800
C1156       C  0.81279908  0.86712877  0.47615161     0.27800
C1157       C  0.86101133  0.80356076  0.50510128     0.27800
C1158       C  0.86080375  0.80432551  0.47379673     0.27800
C1159       C  0.83260061  0.84898238  0.53283794     0.36400
C1160       C  0.85335624  0.82580950  0.53165381     0.36400
C1161       C  0.82498119  0.84540149  0.45019962     0.36400
C1162       C  0.84810493  0.82428889  0.44837361     0.36400
C1163       C  0.80367523  0.88337158  0.50206599    -0.21000
C1164       C  0.80244623  0.88302764  0.48224202    -0.21000
C1165       C  0.86181046  0.78472065  0.49890148    -0.21000
C1166       C  0.86091445  0.78519451  0.47912640    -0.21000
C1167       C  0.83771035  0.84478667  0.55181031    -0.22100
C1168       C  0.85110894  0.83019875  0.55105016    -0.22100
C1169       C  0.82283982  0.83638842  0.43253505    -0.22100
C1170       C  0.83709181  0.82274801  0.43158299    -0.22100
C1171       C  0.81838080  0.86238894  0.52705841    -0.17500
C1172       C  0.81277598  0.86022180  0.45694246    -0.17500
C1173       C  0.86248313  0.81100171  0.45461048    -0.17400
C1174       C  0.86244014  0.80922696  0.52457205    -0.17400
H1175       H  0.79674923  0.89373160  0.51136297     0.15500
H1176       H  0.79423616  0.89296834  0.47336118     0.15500
H1177       H  0.86289967  0.77189731  0.50763562     0.15500
H1178       H  0.86115725  0.77286981  0.46967873     0.15500
H1179       H  0.83205281  0.85125833  0.56481070     0.13700
H1180       H  0.85740369  0.82281303  0.56336630     0.13700
H1181       H  0.81149275  0.83863039  0.42190579     0.13700
H1182       H  0.83768116  0.81174240  0.42065241     0.13700
H1183       H  0.82706875  0.84465500  0.49134624     0.27000
H1184       H  0.86097002  0.83040949  0.48998087     0.27000
N1185       N  0.66731358  0.99112386  0.35952854    -0.35800
N1186       N  0.64660406  0.96107729  0.33955219    -0.56300
N1187       N  0.62631149  0.99143669  0.31913249    -0.35800
N1188       N  0.64633224  0.02134084  0.33993751    -0.56300
C1189       C  0.67189878  0.97545881  0.37012017     0.27800
C1190       C  0.67205324  0.00659165  0.37019893     0.27800
C1191       C  0.61576815  0.97585793  0.31452494     0.27800
C1192       C  0.61552116  0.00697250  0.31458187     0.27800
C1193       C  0.66210029  0.95120431  0.34625299     0.36400
C1194       C  0.63979203  0.95139617  0.32406341     0.36400
C1195       C  0.66128597  0.03153995  0.34715219     0.36400
C1196       C  0.63855905  0.03177844  0.32532401     0.36400
C1197       C  0.67889439  0.98100398  0.38807936    -0.21000
C1198       C  0.67923661  0.00070241  0.38803330    -0.21000
C1199       C  0.59777567  0.98154786  0.30759737    -0.21000
C1200       C  0.59766982  0.00124946  0.30752002    -0.21000
C1201       C  0.66500106  0.93496077  0.33517106    -0.22100
C1202       C  0.65089839  0.93513775  0.32100982    -0.22100
C1203       C  0.66267331  0.04887472  0.33747662    -0.22100
C1204       C  0.64822862  0.04902738  0.32360287    -0.22100
C1205       C  0.67330920  0.95680666  0.36244502    -0.17500
C1206       C  0.67320103  0.02534147  0.36271064    -0.17500
C1207       C  0.62259387  0.02585721  0.31394348    -0.17400
C1208       C  0.62343469  0.95715732  0.31307355    -0.17400
H1209       H  0.68447740  0.97180779  0.39945550     0.15500
H1210       H  0.68501097  0.00957249  0.39946985     0.15500
H1211       H  0.58639179  0.97245021  0.30207453     0.15500
H1212       H  0.58615587  0.01032798  0.30203310     0.15500
H1213       H  0.67629336  0.92432007  0.33684692     0.13700
H1214       H  0.64919351  0.92463323  0.30966302     0.13700
H1215       H  0.67302200  0.06015952  0.34009226     0.13700
H1216       H  0.64528433  0.06042468  0.31335258     0.13700
H1217       H  0.66469904  0.99123562  0.34468630     0.27000
H1218       H  0.64112229  0.99148429  0.32178587     0.27000
N1219       N  0.99871441  0.66545301  0.62244179    -0.35800
N1220       N  0.02727352  0.64786191  0.64628517    -0.56300
N1221       N  0.99534162  0.62948730  0.66719614    -0.35800
N1222       N  0.96603454  0.64567536  0.64149985    -0.56300
C1223       C  0.01474726  0.67012703  0.61237384     0.27800
C1224       C  0.98339436  0.67054054  0.61138928     0.27800
C1225       C  0.01002356  0.62877477  0.68025507     0.27800
C1226       C  0.97883042  0.62711176  0.67736468     0.27800
C1227       C  0.03954996  0.65859224  0.63569745     0.36400
C1228       C  0.03783352  0.63910842  0.66020428     0.36400
C1229       C  0.95712736  0.66117070  0.63368433     0.36400
C1230       C  0.95424990  0.63888339  0.65550017     0.36400
C1231       C  0.00946069  0.67753826  0.59446751    -0.21000
C1232       C  0.98966509  0.67797277  0.59392205    -0.21000
C1233       C  0.00269122  0.62662611  0.69874729    -0.21000
C1234       C  0.98303690  0.62629164  0.69697483    -0.21000
C1235       C  0.05819140  0.65646130  0.64283939    -0.22100
C1236       C  0.05714768  0.64384493  0.65818600    -0.22100
C1237       C  0.93976589  0.66449937  0.64285124    -0.22100
C1238       C  0.93817650  0.65075098  0.65696241    -0.22100
C1239       C  0.03386783  0.67015683  0.61972721    -0.17500
C1240       C  0.96444691  0.67231647  0.61832344    -0.17500
C1241       C  0.96001128  0.62504209  0.66949974    -0.17400
C1242       C  0.02997011  0.62915978  0.67613278    -0.17400
H1243       H  0.01890299  0.68301690  0.58335296     0.15500
H1244       H  0.98092684  0.68402867  0.58238455     0.15500
H1245       H  0.01060638  0.62559102  0.71224993     0.15500
H1246       H  0.97295670  0.62507645  0.70880603     0.15500
H1247       H  0.07115658  0.66334973  0.63771763     0.13700
H1248       H  0.06905953  0.63956507  0.66747786     0.13700
H1249       H  0.92980420  0.67624541  0.64036762     0.13700
H1250       H  0.92749799  0.65110638  0.66827840     0.13700
H1251       H  0.99793651  0.66228826  0.63712888     0.27000
H1252       H  0.99665418  0.62930927  0.65218105     0.27000
N1253       N  0.63512585  0.98994264  0.67140678    -0.35800
N1254       N  0.65509320  0.95929661  0.65161813    -0.56300
N1255       N  0.67543188  0.98887068  0.63022755    -0.35800
N1256       N  0.65443764  0.01929129  0.64888985    -0.56300
C1257       C  0.62474034  0.97447842  0.67672084     0.27800
C1258       C  0.62428648  0.00558450  0.67530673     0.27800
C1259       C  0.68034253  0.97292831  0.62038295     0.27800
C1260       C  0.67994291  0.00403538  0.61896042     0.27800
C1261       C  0.64782851  0.94932432  0.66669507     0.36400
C1262       C  0.66982741  0.94880234  0.64441728     0.36400
C1263       C  0.64687959  0.03010649  0.66314985     0.36400
C1264       C  0.66901137  0.02950416  0.64111035     0.36400
C1265       C  0.60693639  0.98035061  0.68369525    -0.21000
C1266       C  0.60666051  0.00000863  0.68282009    -0.21000
C1267       C  0.68769048  0.97796891  0.60247785    -0.21000
C1268       C  0.68728375  0.99762743  0.60150936    -0.21000
C1269       C  0.65775665  0.93216746  0.66884882    -0.22100
C1270       C  0.67165897  0.93179612  0.65463627    -0.22100
C1271       C  0.65647204  0.04743326  0.66429244    -0.22100
C1272       C  0.67062817  0.04699476  0.65040442    -0.22100
C1273       C  0.63205950  0.95559317  0.67806307    -0.17500
C1274       C  0.63092185  0.02464945  0.67451827    -0.17500
C1275       C  0.68025315  0.02326770  0.62527137    -0.17400
C1276       C  0.68118898  0.95436670  0.62842397    -0.17400
H1277       H  0.59564075  0.97141231  0.68954371     0.15500
H1278       H  0.59510095  0.00918227  0.68782219     0.15500
H1279       H  0.69350547  0.96849915  0.59158937     0.15500
H1280       H  0.69269073  0.00624555  0.58970811     0.15500
H1281       H  0.65531747  0.92113691  0.67956365     0.13700
H1282       H  0.68201071  0.92042110  0.65220328     0.13700
H1283       H  0.65366214  0.05907784  0.67418451     0.13700
H1284       H  0.68090832  0.05825235  0.64751964     0.13700
H1285       H  0.64981069  0.98996732  0.66834602     0.27000
H1286       H  0.67244713  0.98939995  0.64493236     0.27000
N1287       N  0.64416327  0.67097002  0.99002039    -0.35800
N1288       N  0.66427540  0.64884232  0.01850823    -0.56300
N1289       N  0.68535278  0.63037629  0.98744401    -0.35800
N1290       N  0.66500512  0.65228539  0.95913848    -0.56300
C1291       C  0.64140815  0.68088734  0.00655029     0.27800
C1292       C  0.64242090  0.68361092  0.97528348     0.27800
C1293       C  0.69698333  0.62841639  0.00311207     0.27800
C1294       C  0.69669287  0.62858882  0.97167809     0.27800
C1295       C  0.64962936  0.65537821  0.02948154     0.36400
C1296       C  0.67267634  0.63421048  0.02817753     0.36400
C1297       C  0.65237340  0.66260871  0.94844121     0.44800
C1298       C  0.67378392  0.63995079  0.94701326     0.36400
C1299       C  0.63864260  0.70012499  0.00225595    -0.21000
C1300       C  0.63880794  0.70176072  0.98249842    -0.21000
C1301       C  0.71599443  0.62623661  0.99711846    -0.21000
C1302       C  0.71570954  0.62573253  0.97729705    -0.21000
C1303       C  0.64824311  0.64439228  0.04614340    -0.22100
C1304       C  0.66288199  0.63085663  0.04527328    -0.22100
C1305       C  0.65297046  0.65675025  0.92930679    -0.22100
C1306       C  0.66657971  0.64227819  0.92840903    -0.22100
C1307       C  0.63952479  0.67252590  0.02511025    -0.17500
C1308       C  0.64253202  0.67881626  0.95550774    -0.17500
C1309       C  0.69005389  0.62892007  0.95238482    -0.17400
C1310       C  0.69040992  0.62600600  0.02237173    -0.17400
H1311       H  0.63621676  0.71175053  0.01226496     0.15500
H1312       H  0.63640577  0.71485308  0.97443500     0.15500
H1313       H  0.72876875  0.62461798  0.00608452     0.15500
H1314       H  0.72815099  0.62371761  0.96813815     0.15500
H1315       H  0.63820825  0.64630499  0.05791583     0.13700
H1316       H  0.66641409  0.62033867  0.05627582     0.13700
H1317       H  0.64508493  0.66283139  0.91717708     0.13700
H1318       H  0.67132573  0.63502953  0.91546000     0.13700
H1319       H  0.64472058  0.65610548  0.98873569     0.27000
H1320       H  0.67028014  0.63051574  0.98747151     0.27000
C1321       C  0.07462503  0.25896662  0.60782809     0.00700
C1322       C  0.06645230  0.27466859  0.59802397    -0.11200
C1323       C  0.05440410  0.28763862  0.60778295     0.02900
C1324       C  0.05075227  0.28520706  0.62771846     0.00600
C1325       C  0.05873568  0.26944048  0.63742977    -0.11100
C1326       C  0.07027044  0.25621216  0.62763442     0.02800
H1327       H  0.06979657  0.27703473  0.58291181     0.15800
H1328       H  0.05536183  0.26712422  0.65255345     0.15800
C1329       C  0.07686421  0.23944447  0.63806603     0.37400
C1330       C  0.04576174  0.30330353  0.59711987     0.37300
N1331       N  0.08205361  0.22592608  0.64633329    -0.42900
N1332       N  0.03871223  0.31587346  0.58868568    -0.42900
C1333       C  0.13021189  0.18951791  0.53859387     0.00700
C1334       C  0.11465611  0.18377093  0.55013199    -0.11200
C1335       C  0.10567789  0.19680892  0.56266697     0.02900
C1336       C  0.11242260  0.21580241  0.56380893     0.00600
C1337       C  0.12764214  0.22159221  0.55192465    -0.11100
C1338       C  0.13637393  0.20871947  0.53921248     0.02800
H1339       H  0.10966200  0.16909981  0.54942971     0.15800
H1340       H  0.13298930  0.23613255  0.55291466     0.15800
C1341       C  0.15188647  0.21541148  0.52713214     0.37400
C1342       C  0.09019611  0.19022848  0.57483789     0.37300
N1343       N  0.16431268  0.22074684  0.51742516    -0.42900
N1344       N  0.07777460  0.18498749  0.58460725    -0.42900
C1345       C  0.07384188  0.23810144  0.56652359     0.00700
C1346       C  0.07881835  0.24319726  0.54750605    -0.11200
C1347       C  0.06527367  0.24246252  0.53234413     0.02900
C1348       C  0.04615390  0.23676260  0.53603210     0.00600
C1349       C  0.04102389  0.23173053  0.55500636    -0.11100
C1350       C  0.05467428  0.23231484  0.57020857     0.02800
H1351       H  0.09349138  0.24757218  0.54447235     0.15800
H1352       H  0.02633752  0.22727669  0.55793261     0.15800
C1353       C  0.04884269  0.22618651  0.58920912     0.37400
C1354       C  0.07149513  0.24693565  0.51296185     0.37300
N1355       N  0.04400587  0.22126610  0.60441416    -0.42900
N1356       N  0.07652272  0.25035201  0.49740559    -0.42900
C1357       C  0.04623062  0.29370306  0.36491565     0.00700
C1358       C  0.04079247  0.27448861  0.36752202    -0.11200
C1359       C  0.05336074  0.26118050  0.37616518     0.02900
C1360       C  0.07192669  0.26694831  0.38219016     0.00600
C1361       C  0.07728162  0.28619685  0.37991921    -0.11100
C1362       C  0.06455967  0.29960732  0.37160733     0.02800
H1363       H  0.02670481  0.26981415  0.36250441     0.15800
H1364       H  0.09163823  0.29066830  0.38431690     0.15800
C1365       C  0.07063311  0.31928963  0.37007202     0.37400
C1366       C  0.04721080  0.24152501  0.37756445     0.37300
N1367       N  0.07547222  0.33506454  0.36867337    -0.42900
N1368       N  0.04198888  0.22584325  0.37851408    -0.42900
C1369       C  0.11152639  0.21617629  0.41526856     0.00700
C1370       C  0.11822112  0.22297291  0.43310423    -0.11200
C1371       C  0.12813724  0.21083883  0.44596176     0.02900
C1372       C  0.13054056  0.19118055  0.44151562     0.00600
C1373       C  0.12346801  0.18437529  0.42374393    -0.11100
C1374       C  0.11467901  0.19681577  0.41038225     0.02800
H1375       H  0.11651768  0.23801618  0.43657606     0.15800
H1376       H  0.12520380  0.16937677  0.42012911     0.15800
C1377       C  0.10917543  0.18944537  0.39165679     0.37400
C1378       C  0.13643118  0.21911492  0.46322360     0.37300
N1379       N  0.10475561  0.18360290  0.37662437    -0.42900
N1380       N  0.14308500  0.22578579  0.47703069    -0.42900
C1381       C  0.07386388  0.24039386  0.41879820     0.00700
C1382       C  0.07033822  0.25703803  0.42956466    -0.11200
C1383       C  0.05722943  0.25705001  0.44504079     0.02900
C1384       C  0.04720989  0.24007073  0.44999264     0.00600
C1385       C  0.05098864  0.22344082  0.43919866    -0.11100
C1386       C  0.06397045  0.22349805  0.42375966     0.02800
H1387       H  0.07800465  0.27004128  0.42591144     0.15800
H1388       H  0.04334719  0.21031370  0.44244965     0.15800
C1389       C  0.06576288  0.20627356  0.41249126     0.37400
C1390       C  0.05472942  0.27460559  0.45569522     0.37300
N1391       N  0.06659812  0.19231595  0.40356942    -0.42900
N1392       N  0.05280498  0.28871235  0.46421469    -0.42900
C1393       C  0.93644164  0.25144654  0.60386940     0.00700
C1394       C  0.92671726  0.26367040  0.61684742    -0.11200
C1395       C  0.93586197  0.27945201  0.62535117     0.02900
C1396       C  0.95441509  0.28493498  0.61911506     0.00600
C1397       C  0.96281020  0.27447972  0.60388702    -0.11100
C1398       C  0.95506864  0.25697602  0.59773966     0.02800
H1399       H  0.91235027  0.25997809  0.62172001     0.15800
H1400       H  0.97708677  0.27847147  0.59892991     0.15800
C1401       C  0.96834123  0.24400450  0.58853470     0.37400
C1402       C  0.92652236  0.28834333  0.64163919     0.37300
N1403       N  0.97992288  0.23413633  0.58177551    -0.42900
N1404       N  0.91889441  0.29541360  0.65465341    -0.42900
C1405       C  0.90311280  0.19741436  0.56953966     0.00700
C1406       C  0.89422283  0.20701291  0.55400523    -0.11200
C1407       C  0.88307011  0.19707206  0.54037619     0.02900
C1408       C  0.88106617  0.17696930  0.54181515     0.00600
C1409       C  0.89029407  0.16731889  0.55715633    -0.11100
C1410       C  0.90102897  0.17734839  0.57108605     0.02800
H1411       H  0.89530693  0.22246562  0.55297519     0.15800
H1412       H  0.88900736  0.15189203  0.55828854     0.15800
C1413       C  0.90987461  0.16667408  0.58672777     0.37400
C1414       C  0.87330421  0.20794585  0.52543168     0.37300
N1415       N  0.91692469  0.15807547  0.59926647    -0.42900
N1416       N  0.86552910  0.21678043  0.51350736    -0.42900
C1417       C  0.93683633  0.22567100  0.56521489     0.00700
C1418       C  0.93598525  0.24238397  0.55396131    -0.11200
C1419       C  0.94855328  0.24494378  0.53824638     0.02900
C1420       C  0.96234083  0.23060411  0.53371180     0.00600
C1421       C  0.96238375  0.21354564  0.54451596    -0.11100
C1422       C  0.94995734  0.21104840  0.56014156     0.02800
H1423       H  0.92567323  0.25347869  0.55764505     0.15800
H1424       H  0.97285945  0.20240856  0.54140109     0.15800
C1425       C  0.95242789  0.19421282  0.57206293     0.37400
C1426       C  0.94661609  0.26213061  0.52677151     0.37300
N1427       N  0.95470375  0.18081432  0.58169937    -0.42900
N1428       N  0.94496323  0.27584920  0.51747754    -0.42900
C1429       C  0.92599713  0.26687671  0.38891048     0.00700
C1430       C  0.94356220  0.26093131  0.38099854    -0.11200
C1431       C  0.95540214  0.27390372  0.37122604     0.02900
C1432       C  0.95017484  0.29350612  0.37005379     0.00600
C1433       C  0.93287350  0.29955451  0.37859222    -0.11100
C1434       C  0.92059328  0.28637013  0.38756544     0.02800
H1435       H  0.94743450  0.24587141  0.38136082     0.15800
H1436       H  0.92874700  0.31452912  0.37782503     0.15800
C1437       C  0.90230550  0.29309658  0.39486878     0.37400
C1438       C  0.97223177  0.26650838  0.36147897     0.37300
N1439       N  0.88760043  0.29848482  0.40061337    -0.42900
N1440       N  0.98567521  0.26060055  0.35359356    -0.42900
C1441       C  0.89415333  0.21173841  0.42208308     0.00700
C1442       C  0.88066729  0.21652976  0.43629679    -0.11200
C1443       C  0.87169219  0.20233049  0.44729152     0.02900
C1444       C  0.87627435  0.18286656  0.44427166     0.00600
C1445       C  0.89000821  0.17801802  0.43025900    -0.11100
C1446       C  0.89880573  0.19229363  0.41902397     0.02800
H1447       H  0.87655672  0.23139839  0.43825305     0.15800
H1448       H  0.89376467  0.16310503  0.42806898     0.15800
C1449       C  0.91205998  0.18664474  0.40406157     0.37400
C1450       C  0.85732608  0.20799313  0.46121657     0.37300
N1451       N  0.92273109  0.18209243  0.39209860    -0.42900
N1452       N  0.84571705  0.21248236  0.47229284    -0.42900
C1453       C  0.93070799  0.23784384  0.42300570     0.00700
C1454       C  0.94393067  0.22259289  0.42268895    -0.11200
C1455       C  0.95934733  0.22152946  0.43602480     0.02900
C1456       C  0.96198864  0.23621867  0.44989230     0.00600
C1457       C  0.94870166  0.25153705  0.45001103    -0.11100
C1458       C  0.93311831  0.25231144  0.43693828     0.02800
H1459       H  0.94232484  0.21160392  0.41181355     0.15800
H1460       H  0.95017335  0.26277344  0.46070426     0.15800
C1461       C  0.91925272  0.26764838  0.43865793     0.37400
C1462       C  0.97236421  0.20539593  0.43480116     0.37300
N1463       N  0.90810058  0.27990614  0.44028329    -0.42900
N1464       N  0.98271551  0.19239254  0.43380609    -0.42900
C1465       C  0.04154234  0.60660327  0.30306844     0.00700
C1466       C  0.05841449  0.59785233  0.31024461    -0.11200
C1467       C  0.07198304  0.58993815  0.29759752     0.02900
C1468       C  0.06855472  0.59039442  0.27746769     0.00600
C1469       C  0.05128044  0.59823450  0.27032972    -0.11100
C1470       C  0.03787830  0.60650240  0.28290094     0.02800
H1471       H  0.06120580  0.59769014  0.32569971     0.15800
H1472       H  0.04876454  0.59883913  0.25483263     0.15800
C1473       C  0.02100043  0.61575302  0.27469160     0.37400
C1474       C  0.08948157  0.58166976  0.30550941     0.37300
N1475       N  0.00743881  0.62316832  0.26821059    -0.42900
N1476       N  0.10352426  0.57501276  0.31178844    -0.42900
C1477       C  0.10788862  0.55897142  0.22618094     0.00700
C1478       C  0.10801490  0.56417575  0.20657805    -0.11200
C1479       C  0.11743322  0.55280940  0.19286821     0.02900
C1480       C  0.12765641  0.53628833  0.19886071     0.00600
C1481       C  0.12763666  0.53118515  0.21856682    -0.11100
C1482       C  0.11786334  0.54236268  0.23219779     0.02800
H1483       H  0.10096618  0.57732866  0.20201307     0.15800
H1484       H  0.13545754  0.51851068  0.22330743     0.15800
C1485       C  0.11910875  0.53713535  0.25239678     0.37400
C1486       C  0.11629475  0.55829819  0.17275303     0.37300
N1487       N  0.12017758  0.53307106  0.26861008    -0.42900
N1488       N  0.11543718  0.56269201  0.15661912    -0.42900
C1489       C  0.06915775  0.55629230  0.24917721     0.00700
C1490       C  0.06523121  0.54495023  0.26540495    -0.11200
C1491       C  0.05082717  0.53087779  0.26490989     0.02900
C1492       C  0.04007281  0.52762776  0.24763902     0.00600
C1493       C  0.04403128  0.53920298  0.23143671    -0.11100
C1494       C  0.05816575  0.55356658  0.23218792     0.02800
H1495       H  0.07348555  0.54720757  0.27858648     0.15800
H1496       H  0.03573108  0.53737866  0.21821618     0.15800
C1497       C  0.06020595  0.56615595  0.21578900     0.37400
C1498       C  0.04762192  0.52010355  0.28244076     0.37300
N1499       N  0.06151698  0.57631278  0.20261910    -0.42900
N1500       N  0.04507611  0.51162638  0.29659625    -0.42900
C1501       C  0.06840076  0.38017173  0.26377752     0.00700
C1502       C  0.07274291  0.38083759  0.28362142    -0.11200
C1503       C  0.05995377  0.37330053  0.29730387     0.02900
C1504       C  0.04277372  0.36431321  0.29112602     0.00600
C1505       C  0.03812548  0.36430617  0.27128701    -0.11100
C1506       C  0.05068411  0.37228684  0.25765685     0.02800
H1507       H  0.08633117  0.38695167  0.28839841     0.15800
H1508       H  0.02477930  0.35774063  0.26642751     0.15800
C1509       C  0.04542304  0.37157669  0.23743301     0.37400
C1510       C  0.06461213  0.37507889  0.31759876     0.37300
N1511       N  0.04110704  0.37105453  0.22124122    -0.42900
N1512       N  0.06820464  0.37654279  0.33389855    -0.42900
C1513       C  0.10899875  0.41417129  0.21505629     0.00700
C1514       C  0.11992943  0.42872879  0.22360411    -0.11200
C1515       C  0.13057443  0.44146258  0.21223082     0.02900
C1516       C  0.13028878  0.43984524  0.19182725     0.00600
C1517       C  0.11922318  0.42530944  0.18326682    -0.11100
C1518       C  0.10868193  0.41246106  0.19472754     0.02800
H1519       H  0.12056030  0.42981783  0.23924551     0.15800
H1520       H  0.11860115  0.42419864  0.16763489     0.15800
C1521       C  0.09742253  0.39776322  0.18538681     0.37400
C1522       C  0.14183389  0.45603425  0.22181963     0.37300
N1523       N  0.08830586  0.38600967  0.17794829    -0.42900
N1524       N  0.15081096  0.46776136  0.22947131    -0.42900
C1525       C  0.07106108  0.41676611  0.23882774     0.00700
C1526       C  0.05747807  0.41806056  0.22379461    -0.11200
C1527       C  0.04261585  0.43173374  0.22427567     0.02900
C1528       C  0.04130911  0.44457553  0.24005621     0.00600
C1529       C  0.05534952  0.44352751  0.25482799    -0.11100
C1530       C  0.07020602  0.42984203  0.25421677     0.02800
H1531       H  0.05820239  0.40793928  0.21196312     0.15800
H1532       H  0.05482189  0.45351759  0.26679082     0.15800
C1533       C  0.08473619  0.42962951  0.26925314     0.37400
C1534       C  0.02838439  0.43154506  0.20889677     0.37300
N1535       N  0.09652248  0.42954483  0.28120510    -0.42900
N1536       N  0.01695263  0.43136078  0.19660060    -0.42900
C1537       C  0.92202742  0.59187746  0.27183529     0.00700
C1538       C  0.91637272  0.59256427  0.29128867    -0.11200
C1539       C  0.92801432  0.60145844  0.30530523     0.02900
C1540       C  0.94547733  0.61020008  0.29983006     0.00600
C1541       C  0.95107334  0.60952178  0.28033026    -0.11100
C1542       C  0.93953397  0.60051524  0.26636954     0.02800
H1543       H  0.90271734  0.58629679  0.29548421     0.15800
H1544       H  0.96447194  0.61623484  0.27599826     0.15800
C1545       C  0.94543667  0.60129124  0.24639529     0.37400
C1546       C  0.92188850  0.60129079  0.32520505     0.37300
N1547       N  0.95018508  0.60206337  0.23039706    -0.42900
N1548       N  0.91700681  0.60121217  0.34117712    -0.42900
C1549       C  0.88189992  0.53461237  0.18369242     0.00700
C1550       C  0.87796835  0.52844870  0.20263537    -0.11200
C1551       C  0.88333877  0.53945300  0.21867529     0.02900
C1552       C  0.89283586  0.55701021  0.21591112     0.00600
C1553       C  0.89720759  0.56302502  0.19705181    -0.11100
C1554       C  0.89196550  0.55191601  0.18097437     0.02800
H1555       H  0.87019554  0.51519656  0.20484763     0.15800
H1556       H  0.90440156  0.57661644  0.19489045     0.15800
C1557       C  0.89686291  0.55860386  0.16187286     0.37400
C1558       C  0.87807545  0.53291798  0.23774363     0.37300
N1559       N  0.90068351  0.56398507  0.14653050    -0.42900
N1560       N  0.87374247  0.52764699  0.25298455    -0.42900
C1561       C  0.92603467  0.55560925  0.24587121     0.00700
C1562       C  0.93884825  0.55462049  0.23036225    -0.11200
C1563       C  0.95372024  0.54099306  0.23003405     0.02900
C1564       C  0.95564376  0.52744604  0.24526251     0.00600
C1565       C  0.94283076  0.52862785  0.26094219    -0.11100
C1566       C  0.92814866  0.54257519  0.26134154     0.02800
H1567       H  0.93729606  0.56475177  0.21854376     0.15800
H1568       H  0.94402565  0.51842040  0.27273764     0.15800
C1569       C  0.91490729  0.54279022  0.27734585     0.37400
C1570       C  0.96720350  0.54186037  0.21421715     0.37300
N1571       N  0.90426719  0.54291208  0.29017981    -0.42900
N1572       N  0.97807499  0.54266229  0.20160448    -0.42900
C1573       C  0.94632510  0.36146123  0.29317557     0.00700
C1574       C  0.93013402  0.37240636  0.29830044    -0.11200
C1575       C  0.91809750  0.38036052  0.28396778     0.02900
C1576       C  0.92267496  0.37791830  0.26427746     0.00600
C1577       C  0.93871929  0.36687193  0.25917393    -0.11100
C1578       C  0.95033550  0.35836714  0.27340903     0.02800
H1579       H  0.92696782  0.37475200  0.31344928     0.15800
H1580       H  0.94178562  0.36437737  0.24401757     0.15800
C1581       C  0.96600198  0.34604892  0.26744871     0.37400
C1582       C  0.90110063  0.39087681  0.28970481     0.37300
N1583       N  0.97850044  0.33607553  0.26277123    -0.42900
N1584       N  0.88741975  0.39925692  0.29424319    -0.42900
C1585       C  0.89350990  0.41303003  0.20845661     0.00700
C1586       C  0.88819259  0.43137584  0.21451590    -0.11200
C1587       C  0.88070915  0.44471568  0.20130733     0.02900
C1588       C  0.87951683  0.44011303  0.18138987     0.00600
C1589       C  0.88533451  0.42183276  0.17531904    -0.11100
C1590       C  0.89173746  0.40813701  0.18874641     0.02800
H1591       H  0.88881536  0.43488728  0.22978555     0.15800
H1592       H  0.88432333  0.41809872  0.16013090     0.15800
C1593       C  0.89599127  0.38902114  0.18208475     0.37400
C1594       C  0.87323044  0.46253500  0.20875942     0.37300
N1595       N  0.89933234  0.37364694  0.17686041    -0.42900
N1596       N  0.86716908  0.47676464  0.21477082    -0.42900
C1597       C  0.92795571  0.41322343  0.23752981     0.00700
C1598       C  0.93001168  0.42394327  0.25451180    -0.11200
C1599       C  0.94402670  0.43832982  0.25615539     0.02900
C1600       C  0.95636980  0.44250993  0.24039516     0.00600
C1601       C  0.95441338  0.43152073  0.22345249    -0.11100
C1602       C  0.94059270  0.41686875  0.22202996     0.02800
H1603       H  0.92034546  0.42124252  0.26646257     0.15800
H1604       H  0.96398607  0.43409669  0.21138208     0.15800
C1605       C  0.94036704  0.40511915  0.20492719     0.37400
C1606       C  0.94491509  0.44884582  0.27407979     0.37300
N1607       N  0.94052055  0.39567431  0.19120807    -0.42900
N1608       N  0.94562343  0.45720725  0.28849211    -0.42900
C1609       C  0.73826726  0.60157756  0.05351031     0.00700
C1610       C  0.72687560  0.61573520  0.06258470    -0.11200
C1611       C  0.71053204  0.62362139  0.05344877     0.02900
C1612       C  0.70346156  0.61537244  0.03619433     0.00600
C1613       C  0.71275299  0.59883760  0.02926070    -0.11100
C1614       C  0.73121574  0.59380350  0.03596477     0.02800
H1615       H  0.73166696  0.62198225  0.07611294     0.15800
H1616       H  0.70752086  0.59244783  0.01592712     0.15800
C1617       C  0.74361017  0.58499734  0.02187720     0.37400
C1618       C  0.70280922  0.64126795  0.06105366     0.37300
N1619       N  0.75290481  0.57871934  0.00956177    -0.42900
N1620       N  0.69673303  0.65545636  0.06716599    -0.42900
C1621       C  0.79493430  0.56754038  0.08386828     0.00700
C1622       C  0.78606259  0.55235213  0.09361122    -0.11200
C1623       C  0.79708819  0.53867118  0.10359316     0.02900
C1624       C  0.81745334  0.53980763  0.10358069     0.00600
C1625       C  0.82638337  0.55481281  0.09356110    -0.11100
C1626       C  0.81530361  0.56870993  0.08382195     0.02800
H1627       H  0.77042537  0.55159655  0.09405797     0.15800
H1628       H  0.84202078  0.55566395  0.09340618     0.15800
C1629       C  0.82514554  0.58383739  0.07365734     0.37400
C1630       C  0.78718243  0.52399257  0.11437096     0.37300
N1631       N  0.83304867  0.59596659  0.06552202    -0.42900
N1632       N  0.77929718  0.51222971  0.12305162    -0.42900
C1633       C  0.75970265  0.53266011  0.02571668     0.00700
C1634       C  0.74551612  0.53643370  0.03975250    -0.11200
C1635       C  0.74776640  0.55152077  0.05304466     0.02900
C1636       C  0.76431200  0.56313070  0.05231028     0.00600
C1637       C  0.77879244  0.55888392  0.03892110    -0.11100
C1638       C  0.77652128  0.54417964  0.02545928     0.02800
H1639       H  0.73266914  0.52763786  0.04032833     0.15800
H1640       H  0.79144024  0.56797074  0.03825734     0.15800
C1641       C  0.79088411  0.54258632  0.01046667     0.37400
C1642       C  0.73306437  0.55495333  0.06727906     0.37300
N1643       N  0.80227755  0.54151037  0.99834199    -0.42900
N1644       N  0.72132442  0.55776834  0.07876636    -0.42900
C1645       C  0.72179345  0.38566319  0.06357678     0.00700
C1646       C  0.70213846  0.38508957  0.06849642    -0.11200
C1647       C  0.68851234  0.37631285  0.05631138     0.02900
C1648       C  0.69463147  0.36716245  0.03921366     0.00600
C1649       C  0.71437391  0.36750950  0.03451548    -0.11100
C1650       C  0.72788648  0.37668243  0.04645131     0.02800
H1651       H  0.69743140  0.39158245  0.08189958     0.15800
H1652       H  0.71925869  0.36041381  0.02149144     0.15800
C1653       C  0.74807291  0.37567166  0.04145335     0.37400
C1654       C  0.66836824  0.37709815  0.06151533     0.37300
N1655       N  0.76428064  0.37479612  0.03755851    -0.42900
N1656       N  0.65221870  0.37765614  0.06569721    -0.42900
C1657       C  0.80752255  0.44416493  0.10791211     0.00700
C1658       C  0.78856148  0.45144089  0.10669917    -0.11200
C1659       C  0.77333993  0.44022101  0.09967624     0.02900
C1660       C  0.77682348  0.42113984  0.09418489     0.00600
C1661       C  0.79579677  0.41396854  0.09482480    -0.11100
C1662       C  0.81117174  0.42540836  0.10123944     0.02800
H1663       H  0.78558331  0.46588278  0.11160058     0.15800
H1664       H  0.79854549  0.39929815  0.09051982     0.15800
C1665       C  0.83051574  0.41762891  0.10082415     0.37400
C1666       C  0.75415269  0.44835076  0.09903705     0.37300
N1667       N  0.84603633  0.41142467  0.10054077    -0.42900
N1668       N  0.73881791  0.45498625  0.09847467    -0.42900
C1669       C  0.74957902  0.42078978  0.05841318     0.00700
C1670       C  0.76696956  0.42310273  0.04836201    -0.11200
C1671       C  0.76860201  0.43647225  0.03324000     0.02900
C1672       C  0.75251679  0.44802361  0.02790533     0.00600
C1673       C  0.73507474  0.44541406  0.03792454    -0.11100
C1674       C  0.73353324  0.43213340  0.05303080     0.02800
H1675       H  0.77934748  0.41438381  0.05241197     0.15800
H1676       H  0.72256799  0.45413884  0.03430448     0.15800
C1677       C  0.71564144  0.43141041  0.06355181     0.37400
C1678       C  0.78692234  0.43777175  0.02349505     0.37300
N1679       N  0.70121193  0.43113858  0.07189233    -0.42900
N1680       N  0.80164870  0.43873253  0.01573819    -0.42900
C1681       C  0.72708643  0.59965633  0.91196728     0.00700
C1682       C  0.73033715  0.61895607  0.91669542    -0.11200
C1683       C  0.71800074  0.62888066  0.92912344     0.02900
C1684       C  0.70213463  0.61945296  0.93740594     0.00600
C1685       C  0.69868924  0.60022848  0.93266640    -0.11100
C1686       C  0.71081255  0.59036779  0.91980887     0.02800
H1687       H  0.74257049  0.62638637  0.91051596     0.15800
H1688       H  0.68639986  0.59297025  0.93893298     0.15800
C1689       C  0.70541355  0.57130705  0.91399901     0.37400
C1690       C  0.72206031  0.64865952  0.93349745     0.37300
N1691       N  0.70070738  0.55611025  0.90936607    -0.42900
N1692       N  0.72528315  0.66449780  0.93709339    -0.42900
C1693       C  0.77522852  0.55850734  0.87739864     0.00700
C1694       C  0.79448012  0.56135443  0.88321933    -0.11200
C1695       C  0.80923011  0.54918969  0.87668137     0.02900
C1696       C  0.80465348  0.53386211  0.86428165     0.00600
C1697       C  0.78533934  0.53075999  0.85892796    -0.11100
C1698       C  0.77069192  0.54304752  0.86518215     0.02800
H1699       H  0.79804186  0.57343891  0.89236960     0.15800
H1700       H  0.78179917  0.51895786  0.84939231     0.15800
C1701       C  0.75121043  0.53984446  0.85840497     0.37400
C1702       C  0.82891605  0.55279437  0.88257877     0.37300
N1703       N  0.73559002  0.53721008  0.85300253    -0.42900
N1704       N  0.84471791  0.55568656  0.88725902    -0.42900
C1705       C  0.75040168  0.56032050  0.91379887     0.00700
C1706       C  0.74365364  0.54181060  0.90991751    -0.11200
C1707       C  0.74437050  0.52743038  0.92404806     0.02900
C1708       C  0.75241970  0.53132295  0.94239233     0.00600
C1709       C  0.75945267  0.54977352  0.94627764    -0.11100
C1710       C  0.75837105  0.56428954  0.93215662     0.02800
H1711       H  0.73753127  0.53870412  0.89583529     0.15800
H1712       H  0.76559605  0.55287879  0.96039379     0.15800
C1713       C  0.76593061  0.58298567  0.93654229     0.37400
C1714       C  0.73711386  0.50866361  0.91927413     0.37300
N1715       N  0.77195875  0.59802019  0.94002564    -0.42900
N1716       N  0.73131875  0.49362418  0.91542917    -0.42900
C1717       C  0.69528629  0.36543193  0.94203070     0.00700
C1718       C  0.68873783  0.37239902  0.92406145    -0.11200
C1719       C  0.70170770  0.37993616  0.91058078     0.02900
C1720       C  0.72145195  0.38168136  0.91540959     0.00600
C1721       C  0.72795256  0.37540266  0.93357860    -0.11100
C1722       C  0.71520025  0.36694600  0.94669737     0.02800
H1723       H  0.67353471  0.37138834  0.92033100     0.15800
H1724       H  0.74323155  0.37614206  0.93708837     0.15800
C1725       C  0.72310281  0.35904105  0.96441272     0.37400
C1726       C  0.69454600  0.38523770  0.89165180     0.37300
N1727       N  0.72938788  0.35271734  0.97862298    -0.42900
N1728       N  0.68883657  0.38940776  0.87643661    -0.42900
C1729       C  0.77559881  0.41400325  0.88081098     0.00700
C1730       C  0.76972177  0.43166038  0.87313382    -0.11200
C1731       C  0.78303728  0.44391663  0.86430752     0.02900
C1732       C  0.80287664  0.43879979  0.86348950     0.00600
C1733       C  0.80879237  0.42132319  0.87173712    -0.11100
C1734       C  0.79533950  0.40887672  0.88014975     0.02800
H1735       H  0.75452411  0.43551060  0.87327816     0.15800
H1736       H  0.82395265  0.41737129  0.87152839     0.15800
C1737       C  0.80212750  0.39096123  0.88817148     0.37400
C1738       C  0.77581780  0.46141797  0.85568600     0.37300
N1739       N  0.80757057  0.37660557  0.89462409    -0.42900
N1740       N  0.76998973  0.47547504  0.84889394    -0.42900
C1741       C  0.74935317  0.44637682  0.94434229     0.00700
C1742       C  0.73324226  0.44482678  0.93194256    -0.11200
C1743       C  0.73238328  0.43052790  0.91770110     0.02900
C1744       C  0.74777345  0.41741326  0.91571580     0.00600
C1745       C  0.76363040  0.41864639  0.92828463    -0.11100
C1746       C  0.76449012  0.43275028  0.94261300     0.02800
H1747       H  0.72149166  0.45506280  0.93306245     0.15800
H1748       H  0.77527141  0.40830526  0.92700478     0.15800
C1749       C  0.78073645  0.43228875  0.95582871     0.37400
C1750       C  0.71596893  0.43011474  0.90477715     0.37300
N1751       N  0.79370436  0.43183107  0.96647904    -0.42900
N1752       N  0.70273578  0.43007192  0.89446075    -0.42900
C1753       C  0.04315190  0.62009550  0.69059666     0.00700
C1754       C  0.04779400  0.60063127  0.68859955    -0.11200
C1755       C  0.05928886  0.59113592  0.70245051     0.02900
C1756       C  0.06585230  0.60111038  0.71896367     0.00600
C1757       C  0.06065594  0.62050137  0.72109021    -0.11100
C1758       C  0.04962036  0.63004973  0.70704417     0.02800
H1759       H  0.04262501  0.59292014  0.67600141     0.15800
H1760       H  0.06574148  0.62841091  0.73359769     0.15800
C1761       C  0.04489337  0.64999552  0.70985053     0.37400
C1762       C  0.06502265  0.57166813  0.69859742     0.37300
N1763       N  0.04099827  0.66595525  0.71208130    -0.42900
N1764       N  0.06944878  0.55607171  0.69512204    -0.42900
C1765       C  0.10283049  0.56402208  0.76965466     0.00700
C1766       C  0.12102289  0.55528787  0.76803079    -0.11200
C1767       C  0.12862774  0.54407178  0.78301907     0.02900
C1768       C  0.11813342  0.54171682  0.80025069     0.00600
C1769       C  0.10012399  0.55083274  0.80215214    -0.11100
C1770       C  0.09244008  0.56200401  0.78700861     0.02800
H1771       H  0.12938469  0.55737131  0.75498447     0.15800
H1772       H  0.09209106  0.54915517  0.81545164     0.15800
C1773       C  0.07455400  0.57220010  0.79003570     0.37400
C1774       C  0.14731681  0.53521026  0.78046399     0.37300
N1775       N  0.06030146  0.58052114  0.79251029    -0.42900
N1776       N  0.16234059  0.52820249  0.77845559    -0.42900
C1777       C  0.06586672  0.56216883  0.74318287     0.00700
C1778       C  0.04634599  0.56679351  0.74627801    -0.11200
C1779       C  0.03196183  0.55258063  0.74586708     0.02900
C1780       C  0.03698742  0.53331525  0.74218656     0.00600
C1781       C  0.05641379  0.52871486  0.73897411    -0.11100
C1782       C  0.07078187  0.54284277  0.73945286     0.02800
H1783       H  0.04236986  0.58155546  0.74900777     0.15800
H1784       H  0.06034976  0.51401267  0.73581173     0.15800
C1785       C  0.09023285  0.53725609  0.73465293     0.37400
C1786       C  0.01209578  0.55818617  0.74868303     0.37300
N1787       N  0.10572277  0.53250921  0.73063221    -0.42900
N1788       N  0.99618787  0.56279723  0.75086690    -0.42900
C1789       C  0.07006224  0.37935391  0.72303614     0.00700
C1790       C  0.05769746  0.36442753  0.72837624    -0.11200
C1791       C  0.04672053  0.35469253  0.71449725     0.02900
C1792       C  0.04722078  0.36048838  0.69490609     0.00600
C1793       C  0.05984743  0.37518743  0.68946789    -0.11100
C1794       C  0.07178537  0.38409052  0.70325137     0.02800
H1795       H  0.05707661  0.35997776  0.74340606     0.15800
H1796       H  0.06067368  0.37938926  0.67438734     0.15800
C1797       C  0.08666217  0.39683830  0.69656709     0.37400
C1798       C  0.03501224  0.33874578  0.72063690     0.37300
N1799       N  0.09873197  0.40688030  0.69113294    -0.42900
N1800       N  0.02561927  0.32595284  0.72546550    -0.42900
C1801       C  0.10019811  0.41904706  0.77552180     0.00700
C1802       C  0.09916294  0.41538014  0.79548753    -0.11200
C1803       C  0.10658966  0.42840979  0.80902943     0.02900
C1804       C  0.11589364  0.44520036  0.80263579     0.00600
C1805       C  0.11664899  0.44895314  0.78263753    -0.11100
C1806       C  0.10880932  0.43614322  0.76913971     0.02800
H1807       H  0.09281058  0.40211291  0.80049283     0.15800
H1808       H  0.12373345  0.46181693  0.77754848     0.15800
C1809       C  0.11094302  0.44022030  0.74879240     0.37400
C1810       C  0.10451585  0.42425811  0.82937222     0.37300
N1811       N  0.11270606  0.44344208  0.73247458    -0.42900
N1812       N  0.10287603  0.42094713  0.84568737    -0.42900
C1813       C  0.03854865  0.44778260  0.74024979     0.00700
C1814       C  0.03930055  0.43656158  0.75720370    -0.11200
C1815       C  0.05297426  0.42189686  0.75960406     0.02900
C1816       C  0.06662508  0.41826868  0.74505825     0.00600
C1817       C  0.06585677  0.42924017  0.72803883    -0.11100
C1818       C  0.05189784  0.44370299  0.72536848     0.02800
H1819       H  0.02899734  0.43908904  0.76866774     0.15800
H1820       H  0.07655641  0.42690693  0.71701803     0.15800
C1821       C  0.05207286  0.45433044  0.70743777     0.37400
C1822       C  0.05242682  0.41048625  0.77699909     0.37300
N1823       N  0.05228558  0.46269417  0.69296696    -0.42900
N1824       N  0.05181389  0.40140988  0.79100490    -0.42900
C1825       C  0.92073380  0.59549421  0.70806751     0.00700
C1826       C  0.94032099  0.59034999  0.70743856    -0.11200
C1827       C  0.95217487  0.59694380  0.69251553     0.02900
C1828       C  0.94575250  0.61207648  0.68018381     0.00600
C1829       C  0.92554401  0.61405895  0.67842544    -0.11100
C1830       C  0.91310294  0.60597770  0.69215846     0.02800
H1831       H  0.94668207  0.58136759  0.71852527     0.15800
H1832       H  0.91912497  0.62147700  0.66628671     0.15800
C1833       C  0.89253738  0.60833736  0.68928205     0.37400
C1834       C  0.97029883  0.58706121  0.68949092     0.37300
N1835       N  0.87606116  0.61018403  0.68695884    -0.42900
N1836       N  0.98469468  0.57899398  0.68697122    -0.42900
C1837       C  0.87538219  0.53502568  0.79107113     0.00700
C1838       C  0.88414613  0.55185489  0.79781736    -0.11200
C1839       C  0.89121201  0.56556530  0.78484844     0.02900
C1840       C  0.88999991  0.56230424  0.76474886     0.00600
C1841       C  0.88189312  0.54523537  0.75799006    -0.11100
C1842       C  0.87436889  0.53174752  0.77088726     0.02800
H1843       H  0.88519863  0.55438790  0.81325759     0.15800
H1844       H  0.88080639  0.54276978  0.74253383     0.15800
C1845       C  0.86509520  0.51498188  0.76299243     0.37400
C1846       C  0.89986208  0.58274284  0.79248458     0.37300
N1847       N  0.85775026  0.50151280  0.75664886    -0.42900
N1848       N  0.90682100  0.59648934  0.79864558    -0.42900
C1849       C  0.92339656  0.55934188  0.73647343     0.00700
C1850       C  0.93429763  0.55618587  0.75335453    -0.11200
C1851       C  0.94853676  0.54198260  0.75425979     0.02900
C1852       C  0.95266899  0.53084740  0.73767558     0.00600
C1853       C  0.94153356  0.53388501  0.72078652    -0.11100
C1854       C  0.92675145  0.54772481  0.72021897     0.02800
H1855       H  0.93173614  0.56508383  0.76590705     0.15800
H1856       H  0.94417406  0.52524689  0.70806705     0.15800
C1857       C  0.91516877  0.54976581  0.70292046     0.37400
C1858       C  0.95878386  0.53957026  0.77238984     0.37300
N1859       N  0.90589596  0.55148943  0.68902800    -0.42900
N1860       N  0.96683602  0.53762510  0.78699800    -0.42900
C1861       C  0.94760607  0.36442534  0.67971992     0.00700
C1862       C  0.94200178  0.38322182  0.67509937    -0.11200
C1863       C  0.92909350  0.39331289  0.68696601     0.02900
C1864       C  0.92204044  0.38466732  0.70398851     0.00600
C1865       C  0.92760774  0.36582226  0.70841953    -0.11100
C1866       C  0.94019715  0.35569406  0.69649522     0.02800
H1867       H  0.94792832  0.39006583  0.66237039     0.15800
H1868       H  0.92192718  0.35891688  0.72124318     0.15800
C1869       C  0.94596957  0.33657249  0.70214176     0.37400
C1870       C  0.92286138  0.41211133  0.68091092     0.37300
N1871       N  0.95069563  0.32129095  0.70667524    -0.42900
N1872       N  0.91801861  0.42710613  0.67559155    -0.42900
C1873       C  0.88601405  0.42089417  0.75485212     0.00700
C1874       C  0.89704188  0.42023866  0.77198936    -0.11200
C1875       C  0.89067606  0.42962951  0.78876901     0.02900
C1876       C  0.87306390  0.43989884  0.78845071     0.00600
C1877       C  0.86227360  0.44074880  0.77125287    -0.11100
C1878       C  0.86853174  0.43137275  0.75459338     0.02800
H1879       H  0.91030961  0.41194220  0.77242611     0.15800
H1880       H  0.84901452  0.44907645  0.77078829     0.15800
C1881       C  0.85688932  0.43301272  0.73725068     0.37400
C1882       C  0.90246128  0.42878073  0.80605204     0.37300
N1883       N  0.84758923  0.43435355  0.72333490    -0.42900
N1884       N  0.91195244  0.42820622  0.81989034    -0.42900
C1885       C  0.92380345  0.42130813  0.73041709     0.00700
C1886       C  0.94120231  0.41616910  0.73965663    -0.11200
C1887       C  0.95630999  0.42949579  0.74163486     0.02900
C1888       C  0.95434158  0.44804994  0.73364238     0.00600
C1889       C  0.93703232  0.45300733  0.72417807    -0.11100
C1890       C  0.92170496  0.43999355  0.72293783     0.02800
H1891       H  0.94281332  0.40185973  0.74555913     0.15800
H1892       H  0.93529939  0.46727746  0.71817361     0.15800
C1893       C  0.90388244  0.44605568  0.71385912     0.37400
C1894       C  0.97380622  0.42380118  0.75161480     0.37300
N1895       N  0.88960658  0.45093042  0.70652810    -0.42900
N1896       N  0.98785626  0.41936209  0.75964765    -0.42900
C1897       C  0.26841573  0.60720298  0.06399739     0.00700
C1898       C  0.28027594  0.62221075  0.07080935    -0.11200
C1899       C  0.29413362  0.63082464  0.05903862     0.02900
C1900       C  0.29892739  0.62244346  0.04116958     0.00600
C1901       C  0.28844598  0.60625413  0.03516111    -0.11100
C1902       C  0.27203482  0.60017310  0.04518315     0.02800
H1903       H  0.27781521  0.62834089  0.08495887     0.15800
H1904       H  0.29144749  0.60006080  0.02111669     0.15800
C1905       C  0.25764789  0.59036711  0.03383871     0.37400
C1906       C  0.30157337  0.64925424  0.06481191     0.37300
N1907       N  0.24642354  0.58320196  0.02374157    -0.42900
N1908       N  0.30734188  0.66412043  0.06933840    -0.42900
C1909       C  0.22023431  0.57048453  0.10422217     0.00700
C1910       C  0.20015494  0.57303237  0.10582691    -0.11200
C1911       C  0.18878204  0.55988269  0.11591341     0.02900
C1912       C  0.19756491  0.54400788  0.12509387     0.00600
C1913       C  0.21773845  0.54177086  0.12399187    -0.11100
C1914       C  0.22907822  0.55480763  0.11366671     0.02800
H1915       H  0.19330794  0.58535550  0.09905816     0.15800
H1916       H  0.22461552  0.52969843  0.13118825     0.15800
C1917       C  0.24979118  0.55239865  0.11397099     0.37400
C1918       C  0.16813860  0.56283571  0.11635090     0.37300
N1919       N  0.26639837  0.55046128  0.11440241    -0.42900
N1920       N  0.15160540  0.56529461  0.11675955    -0.42900
C1921       C  0.24607049  0.56684850  0.06778223     0.00700
C1922       C  0.26401294  0.55787055  0.06484869    -0.11200
C1923       C  0.26612439  0.54331258  0.05089709     0.02900
C1924       C  0.24997280  0.53737968  0.03967016     0.00600
C1925       C  0.23187701  0.54564763  0.04366041    -0.11100
C1926       C  0.22987035  0.56031460  0.05722603     0.02800
H1927       H  0.27648914  0.56275653  0.07297743     0.15800
H1928       H  0.21925945  0.54145230  0.03533760     0.15800
C1929       C  0.21145344  0.56998446  0.05824752     0.37400
C1930       C  0.28499239  0.53484875  0.04846467     0.37300
N1931       N  0.19668626  0.57777626  0.05877541    -0.42900
N1932       N  0.30013347  0.52805174  0.04657522    -0.42900
C1933       C  0.28914072  0.39573050  0.06755920     0.00700
C1934       C  0.30933444  0.39657782  0.06943196    -0.11200
C1935       C  0.32141498  0.38875380  0.05525001     0.02900
C1936       C  0.31330698  0.37966541  0.03889049     0.00600
C1937       C  0.29310856  0.37916618  0.03685073    -0.11100
C1938       C  0.28103694  0.38697123  0.05103672     0.02800
H1939       H  0.31567200  0.40309067  0.08219258     0.15800
H1940       H  0.28675779  0.37200942  0.02445443     0.15800
C1941       C  0.26044966  0.38436823  0.04906838     0.37400
C1942       C  0.34208269  0.38991321  0.05790667     0.37300
N1943       N  0.24396997  0.38205895  0.04750265    -0.42900
N1944       N  0.35866240  0.39066622  0.06000260    -0.42900
C1945       C  0.20700817  0.44816835  0.12383313     0.00700
C1946       C  0.22608841  0.45302392  0.12879798    -0.11200
C1947       C  0.24183287  0.44337395  0.12066208     0.02900
C1948       C  0.23865565  0.42843323  0.10738324     0.00600
C1949       C  0.21962543  0.42389564  0.10196854    -0.11100
C1950       C  0.20384011  0.43378861  0.10990378     0.02800
H1951       H  0.22866085  0.46452109  0.13899848     0.15800
H1952       H  0.21708192  0.41236652  0.09181398     0.15800
C1953       C  0.18459702  0.42931646  0.10324531     0.37400
C1954       C  0.26114507  0.44923285  0.12590468     0.37300
N1955       N  0.16916775  0.42583140  0.09779792    -0.42900
N1956       N  0.27661187  0.45405623  0.12999958    -0.42900
C1957       C  0.25544315  0.45601194  0.03750088     0.00700
C1958       C  0.27201260  0.45641716  0.04939370    -0.11200
C1959       C  0.27436278  0.44350388  0.06471391     0.02900
C1960       C  0.26017727  0.42960105  0.06825079     0.00600
C1961       C  0.24343392  0.42931879  0.05678141    -0.11100
C1962       C  0.24094163  0.44232022  0.04144838     0.02800
H1963       H  0.28307352  0.46708859  0.04695427     0.15800
H1964       H  0.23246343  0.41868942  0.05963464     0.15800
C1965       C  0.22367383  0.44082096  0.02974439     0.37400
C1966       C  0.29114192  0.44514225  0.07709147     0.37300
N1967       N  0.20979554  0.43955811  0.02041295    -0.42900
N1968       N  0.30453672  0.44655795  0.08708770    -0.42900
C1969       C  0.26984538  0.60702134  0.91916738     0.00700
C1970       C  0.26670024  0.62620621  0.92447922    -0.11200
C1971       C  0.28021847  0.63622885  0.93568136     0.02900
C1972       C  0.29699927  0.62685781  0.94249580     0.00600
C1973       C  0.30054866  0.60792834  0.93669253    -0.11100
C1974       C  0.28740655  0.59814278  0.92472398     0.02800
H1975       H  0.25368117  0.63350220  0.91960568     0.15800
H1976       H  0.31373362  0.60084114  0.94142193     0.15800
C1977       C  0.29313730  0.57980137  0.91712190     0.37400
C1978       C  0.27656232  0.65608968  0.94011233     0.37300
N1979       N  0.29827226  0.56530034  0.91090684    -0.42900
N1980       N  0.27365475  0.67201502  0.94365422    -0.42900
C1981       C  0.21887197  0.56523446  0.88901771     0.00700
C1982       C  0.20002714  0.56727971  0.89617516    -0.11200
C1983       C  0.18497715  0.55553386  0.88939894     0.02900
C1984       C  0.18870546  0.54171086  0.87506411     0.00600
C1985       C  0.20771436  0.53915088  0.86859449    -0.11100
C1986       C  0.22272606  0.55075079  0.87543264     0.02800
H1987       H  0.19694984  0.57848663  0.90654054     0.15800
H1988       H  0.21075988  0.52818560  0.85795460     0.15800
C1989       C  0.24195664  0.54782624  0.86804072     0.37400
C1990       C  0.16586207  0.55786043  0.89724333     0.37300
N1991       N  0.25741657  0.54546415  0.86223327    -0.42900
N1992       N  0.15052980  0.55960574  0.90357701    -0.42900
C1993       C  0.24685179  0.56812161  0.92385167     0.00700
C1994       C  0.25625492  0.55066729  0.92050961    -0.11200
C1995       C  0.25762265  0.53668511  0.93501812     0.02900
C1996       C  0.24869539  0.53972279  0.95305382     0.00600
C1997       C  0.23875388  0.55699796  0.95623224    -0.11100
C1998       C  0.23799510  0.57126251  0.94184573     0.02800
H1999       H  0.26261168  0.54804876  0.90648439     0.15800
H2000       H  0.23179088  0.55942516  0.97001651     0.15800
C2001       C  0.22768257  0.58881538  0.94556089     0.37400
C2002       C  0.26771292  0.51906689  0.93082119     0.37300
N2003       N  0.21939210  0.60290383  0.94853640    -0.42900
N2004       N  0.27582457  0.50496776  0.92744269    -0.42900
C2005       C  0.30883147  0.37690488  0.94061047     0.00700
C2006       C  0.28925420  0.37642876  0.94585386    -0.11200
C2007       C  0.27503024  0.38516492  0.93433913     0.02900
C2008       C  0.28021606  0.39433168  0.91698153     0.00600
C2009       C  0.29974296  0.39475396  0.91160044    -0.11100
C2010       C  0.31408975  0.38647611  0.92344604     0.02800
H2011       H  0.28509255  0.36917191  0.95906669     0.15800
H2012       H  0.30375888  0.40151494  0.89808485     0.15800
C2013       C  0.33407176  0.38832927  0.91796535     0.37400
C2014       C  0.25511145  0.38377626  0.94020610     0.37300
N2015       N  0.35010801  0.38987989  0.91363742    -0.42900
N2016       N  0.23915413  0.38265095  0.94493375    -0.42900
C2017       C  0.22244110  0.42614009  0.88724939     0.00700
C2018       C  0.22579337  0.44313390  0.87710238    -0.11200
C2019       C  0.21037105  0.45409104  0.86990935     0.02900
C2020       C  0.19111274  0.44825513  0.87317531     0.00600
C2021       C  0.18774333  0.43141993  0.88370785    -0.11100
C2022       C  0.20325992  0.42024573  0.89056373     0.02800
H2023       H  0.24051743  0.44741652  0.87408897     0.15800
H2024       H  0.17302087  0.42695150  0.88639847     0.15800
C2025       C  0.19923404  0.40265976  0.90073664     0.37400
C2026       C  0.21463772  0.47094408  0.85858162     0.37300
N2027       N  0.19603924  0.38855897  0.90890767    -0.42900
N2028       N  0.21794557  0.48445247  0.84948413    -0.42900
C2029       C  0.25214862  0.42916995  0.92099302     0.00700
C2030       C  0.23639809  0.43026875  0.93354930    -0.11200
C2031       C  0.23598527  0.44361290  0.94869379     0.02900
C2032       C  0.25158947  0.45647322  0.95145893     0.00600
C2033       C  0.26734626  0.45531159  0.93874020    -0.11100
C2034       C  0.26762454  0.44198773  0.92354763     0.02800
H2035       H  0.22449256  0.42040979  0.93165417     0.15800
H2036       H  0.27933323  0.46512440  0.94037898     0.15800
C2037       C  0.28344158  0.44238486  0.91009604     0.37400
C2038       C  0.21959670  0.44322681  0.96148007     0.37300
N2039       N  0.29605933  0.44282617  0.89921675    -0.42900
N2040       N  0.20643215  0.44282358  0.97169390    -0.42900
C2041       C  0.60791861  0.26664989  0.06476079     0.00700
C2042       C  0.59745771  0.28329258  0.06009415    -0.11200
C2043       C  0.60544129  0.29725614  0.04793312     0.02900
C2044       C  0.62382262  0.29423879  0.03974881     0.00600
C2045       C  0.63409186  0.27748240  0.04420789    -0.11100
C2046       C  0.62652195  0.26395085  0.05692876     0.02800
H2047       H  0.58342840  0.28570916  0.06654538     0.15800
H2048       H  0.64818945  0.27510833  0.03787228     0.15800
C2049       C  0.63813573  0.24736003  0.06175395     0.37400
C2050       C  0.59477363  0.31468927  0.04422466     0.37300
N2051       N  0.64738964  0.23407012  0.06572247    -0.42900
N2052       N  0.58633477  0.32872391  0.04120046    -0.42900
C2053       C  0.56823021  0.22101060  0.10421630     0.00700
C2054       C  0.56182937  0.22407578  0.12323164    -0.11200
C2055       C  0.54983587  0.21093703  0.13248803     0.02900
C2056       C  0.54350016  0.19457504  0.12251770     0.00600
C2057       C  0.54969762  0.19145399  0.10349834    -0.11100
C2058       C  0.56225563  0.20432448  0.09439961     0.02800
H2059       H  0.56662629  0.23662866  0.13108660     0.15800
H2060       H  0.54492039  0.17876061  0.09587108     0.15800
C2061       C  0.56977866  0.19927723  0.07568965     0.37400
C2062       C  0.54412000  0.21452381  0.15219954     0.37300
N2063       N  0.57576472  0.19486790  0.06075984    -0.42900
N2064       N  0.53945235  0.21737834  0.16797176    -0.42900
C2065       C  0.56931333  0.24343044  0.06429768     0.00700
C2066       C  0.54999634  0.24752204  0.06895146    -0.11200
C2067       C  0.53546741  0.24777367  0.05461875     0.02900
C2068       C  0.54023328  0.24444898  0.03509453     0.00600
C2069       C  0.55939755  0.24000608  0.03046331    -0.11100
C2070       C  0.57382557  0.23922558  0.04482534     0.02800
H2071       H  0.54624720  0.25034186  0.08387060     0.15800
H2072       H  0.56302177  0.23670393  0.01559673     0.15800
C2073       C  0.59270921  0.23247910  0.03936400     0.37400
C2074       C  0.51565788  0.25039029  0.06043358     0.37300
N2075       N  0.60764157  0.22670373  0.03467625    -0.42900
N2076       N  0.49978592  0.25214043  0.06527396    -0.42900
C2077       C  0.39398112  0.27597399  0.06245979     0.00700
C2078       C  0.39815582  0.29516963  0.06669920    -0.11200
C2079       C  0.39269527  0.30982998  0.05390742     0.02900
C2080       C  0.38239856  0.30531739  0.03689143     0.00600
C2081       C  0.37874836  0.28607480  0.03242059    -0.11100
C2082       C  0.38455324  0.27141127  0.04496994     0.02800
H2083       H  0.40556763  0.29868045  0.08009183     0.15800
H2084       H  0.37089638  0.28256548  0.01927098     0.15800
C2085       C  0.37962340  0.25195822  0.04008802     0.37400
C2086       C  0.39779019  0.32932946  0.05842246     0.37300
N2087       N  0.37551402  0.23644168  0.03601257    -0.42900
N2088       N  0.40192453  0.34497427  0.06194525    -0.42900
C2089       C  0.42161944  0.21908810  0.09840876     0.00700
C2090       C  0.44009286  0.21565786  0.09079401    -0.11200
C2091       C  0.45124482  0.19995372  0.09673228     0.02900
C2092       C  0.44573625  0.18914349  0.11313734     0.00600
C2093       C  0.42728429  0.19231960  0.12073932    -0.11100
C2094       C  0.41481557  0.20606729  0.11267965     0.02800
H2095       H  0.44653536  0.22536553  0.08065137     0.15800
H2096       H  0.42256821  0.18427200  0.13325177     0.15800
C2097       C  0.39508249  0.20601164  0.11932286     0.37400
C2098       C  0.46882347  0.19594537  0.08628375     0.37300
N2099       N  0.37929738  0.20574458  0.12472319    -0.42900
N2100       N  0.48289601  0.19290956  0.07787147    -0.42900
C2101       C  0.42522250  0.24564591  0.06052386     0.00700
C2102       C  0.43806526  0.26101827  0.05890243    -0.11200
C2103       C  0.45293696  0.26092176  0.04532820     0.02900
C2104       C  0.45544019  0.24496632  0.03298015     0.00600
C2105       C  0.44246137  0.22953844  0.03456936    -0.11100
C2106       C  0.42732243  0.22987557  0.04805052     0.02800
H2107       H  0.43661067  0.27306810  0.06864188     0.15800
H2108       H  0.44402589  0.21725366  0.02515706     0.15800
C2109       C  0.41447326  0.21374613  0.04931327     0.37400
C2110       C  0.46576593  0.27717284  0.04503990     0.37300
N2111       N  0.40419546  0.20077530  0.05042702    -0.42900
N2112       N  0.47601953  0.29021555  0.04492646    -0.42900
C2113       C  0.60576725  0.26565627  0.91749740     0.00700
C2114       C  0.61802662  0.25943879  0.93244234    -0.11200
C2115       C  0.62711119  0.27259484  0.94468684     0.02900
C2116       C  0.62408198  0.29244453  0.94198949     0.00600
C2117       C  0.61162220  0.29868322  0.92712874    -0.11100
C2118       C  0.60248194  0.28544418  0.91488164     0.02800
H2119       H  0.62085493  0.24425192  0.93425183     0.15800
H2120       H  0.60895938  0.31387602  0.92520348     0.15800
C2121       C  0.58989591  0.29244381  0.89968559     0.37400
C2122       C  0.63963355  0.26540900  0.95985957     0.37300
N2123       N  0.57970054  0.29806844  0.88759018    -0.42900
N2124       N  0.64958708  0.25965247  0.97208905    -0.42900
C2125       C  0.54160994  0.19360311  0.86022039     0.00700
C2126       C  0.55755874  0.18486783  0.86931184    -0.11200
C2127       C  0.57110461  0.19579344  0.87963243     0.02900
C2128       C  0.56842872  0.21575098  0.88160100     0.00600
C2129       C  0.55230446  0.22441942  0.87285412    -0.11100
C2130       C  0.53916773  0.21362609  0.86192838     0.02800
H2131       H  0.55953407  0.16951068  0.86812987     0.15800
H2132       H  0.55061803  0.23984565  0.87358434     0.15800
C2133       C  0.52402297  0.22359662  0.85156039     0.37400
C2134       C  0.58781387  0.18624484  0.88776647     0.37300
N2135       N  0.51213560  0.23176494  0.84303919    -0.42900
N2136       N  0.60119521  0.17847544  0.89419635    -0.42900
C2137       C  0.56861201  0.24122100  0.91893109     0.00700
C2138       C  0.55615168  0.25698663  0.92025302    -0.11200
C2139       C  0.54236939  0.25821070  0.93503999     0.02900
C2140       C  0.54057981  0.24316027  0.94876420     0.00600
C2141       C  0.55327081  0.22743847  0.94737699    -0.11100
C2142       C  0.56736576  0.22656936  0.93288042     0.02800
H2143       H  0.55723559  0.26837872  0.90965909     0.15800
H2144       H  0.55253316  0.21598728  0.95796088     0.15800
C2145       C  0.58120124  0.21110677  0.93325515     0.37400
C2146       C  0.53020480  0.27502236  0.93549495     0.37300
N2147       N  0.59247265  0.19884516  0.93383332    -0.42900
N2148       N  0.52065352  0.28864580  0.93582090    -0.42900
C2149       C  0.38739608  0.26553902  0.92431852     0.00700
C2150       C  0.37562302  0.26443856  0.94065257    -0.11200
C2151       C  0.36986639  0.28102303  0.95037358     0.02900
C2152       C  0.37580129  0.29920268  0.94367977     0.00600
C2153       C  0.38773682  0.30033283  0.92741722    -0.11100
C2154       C  0.39345188  0.28366258  0.91763708     0.02800
H2155       H  0.37056947  0.25058540  0.94556400     0.15800
H2156       H  0.39251793  0.31421972  0.92236072     0.15800
C2157       C  0.40485982  0.28554153  0.90035738     0.37400
C2158       C  0.35762886  0.27909835  0.96710212     0.37300
N2159       N  0.41406900  0.28703083  0.88653328    -0.42900
N2160       N  0.34786887  0.27763986  0.98054157    -0.42900
C2161       C  0.44324973  0.18955571  0.86616129     0.00700
C2162       C  0.42851391  0.18035061  0.87646693    -0.11200
C2163       C  0.41533637  0.19094177  0.88753587     0.02900
C2164       C  0.41765773  0.21092254  0.88954775     0.00600
C2165       C  0.43275200  0.21998902  0.87984632    -0.11100
C2166       C  0.44509789  0.20965169  0.86781310     0.02800
H2167       H  0.42700853  0.16494413  0.87545117     0.15800
H2168       H  0.43414519  0.23542764  0.88069955     0.15800
C2169       C  0.45888758  0.22020549  0.85649258     0.37400
C2170       C  0.39930540  0.18108606  0.89625533     0.37300
N2171       N  0.46973528  0.22882758  0.84732295    -0.42900
N2172       N  0.38632719  0.17317376  0.90300669    -0.42900
C2173       C  0.42327102  0.23860470  0.92441603     0.00700
C2174       C  0.43688999  0.25322146  0.92222999    -0.11200
C2175       C  0.45253936  0.25499625  0.93515607     0.02900
C2176       C  0.45514092  0.24150461  0.95027125     0.00600
C2177       C  0.44160343  0.22665979  0.95214906    -0.11100
C2178       C  0.42566268  0.22533081  0.93961661     0.02800
H2179       H  0.43532915  0.26324207  0.91038931     0.15800
H2180       H  0.44313111  0.21636954  0.96384218     0.15800
C2181       C  0.41143511  0.21070758  0.94306866     0.37400
C2182       C  0.46573554  0.27067064  0.93238338     0.37300
N2183       N  0.39994454  0.19907839  0.94594870    -0.42900
N2184       N  0.47614076  0.28338850  0.93014102    -0.42900
C2185       C  0.60255019  0.06568485  0.71128206     0.00700
C2186       C  0.60162589  0.06787191  0.69110907    -0.11200
C2187       C  0.61064626  0.05465696  0.67887693     0.02900
C2188       C  0.62108849  0.03913000  0.68687168     0.00600
C2189       C  0.62188978  0.03691611  0.70707361    -0.11100
C2190       C  0.61276032  0.05005217  0.71927938     0.02800
H2191       H  0.59401992  0.08006614  0.68493776     0.15800
H2192       H  0.62993147  0.02502183  0.71329821     0.15800
C2193       C  0.61501060  0.04787060  0.73994620     0.37400
C2194       C  0.60897408  0.05723343  0.65820887     0.37300
N2195       N  0.61690596  0.04623528  0.75651275    -0.42900
N2196       N  0.60771099  0.05925491  0.64162839    -0.42900
C2197       C  0.56657555  0.10364942  0.76117828     0.00700
C2198       C  0.54672736  0.10038307  0.75932925    -0.11200
C2199       C  0.53369098  0.10829352  0.77256641     0.02900
C2200       C  0.53997110  0.12257837  0.78596207     0.00600
C2201       C  0.55999762  0.12262850  0.78992636    -0.11100
C2202       C  0.57320308  0.11364410  0.77763944     0.02800
H2203       H  0.54129157  0.09141191  0.74778212     0.15800
H2204       H  0.56565881  0.12922652  0.80284798     0.15800
C2205       C  0.59348881  0.11443983  0.78262764     0.37400
C2206       C  0.51496306  0.09929349  0.77364524     0.37300
N2207       N  0.60972606  0.11502960  0.78666919    -0.42900
N2208       N  0.50010899  0.09178851  0.77443066    -0.42900
C2209       C  0.56659153  0.06462433  0.73764681     0.00700
C2210       C  0.55733951  0.05854394  0.72064556    -0.11200
C2211       C  0.54319655  0.04423608  0.72091703     0.02900
C2212       C  0.53758901  0.03577392  0.73870919     0.00600
C2213       C  0.54717733  0.04172055  0.75572534    -0.11100
C2214       C  0.56167540  0.05575874  0.75528519     0.02800
H2215       H  0.56102224  0.06528744  0.70702882     0.15800
H2216       H  0.54350273  0.03526587  0.76948566     0.15800
C2217       C  0.57153249  0.06055431  0.77305573     0.37400
C2218       C  0.53476041  0.03881127  0.70258446     0.37300
N2219       N  0.57936845  0.06441155  0.78735535    -0.42900
N2220       N  0.52816007  0.03448099  0.68781132    -0.42900
C2221       C  0.38551756  0.05774015  0.71732812     0.00700
C2222       C  0.37232253  0.04335770  0.72210638    -0.11200
C2223       C  0.36615429  0.03017528  0.70818267     0.02900
C2224       C  0.37284152  0.03165286  0.68899545     0.00600
C2225       C  0.38638422  0.04575044  0.68431829    -0.11100
C2226       C  0.39284257  0.05870670  0.69836755     0.02800
H2227       H  0.36655453  0.04268526  0.73663766     0.15800
H2228       H  0.39173238  0.04672789  0.66964598     0.15800
C2229       C  0.40629561  0.07340811  0.69279982     0.37400
C2230       C  0.35267671  0.01545557  0.71374500     0.37300
N2231       N  0.41707106  0.08519224  0.68828465    -0.42900
N2232       N  0.34197390  0.00355350  0.71813567    -0.42900
C2233       C  0.41770455  0.10425807  0.76200690     0.00700
C2234       C  0.42073895  0.12364844  0.75738132    -0.11200
C2235       C  0.43260095  0.13522892  0.76888268     0.02900
C2236       C  0.44201805  0.12733708  0.78516946     0.00600
C2237       C  0.43878850  0.10809200  0.79002470    -0.11100
C2238       C  0.42646890  0.09662463  0.77882503     0.02800
H2239       H  0.41360979  0.12983186  0.74480059     0.15800
H2240       H  0.44574824  0.10209775  0.80278932     0.15800
C2241       C  0.42195693  0.07768844  0.78576371     0.37400
C2242       C  0.43488008  0.15513541  0.76378021     0.37300
N2243       N  0.41825650  0.06262485  0.79163153    -0.42900
N2244       N  0.43669814  0.17109958  0.75970865    -0.42900
C2245       C  0.42210159  0.06336112  0.74195499     0.00700
C2246       C  0.41887898  0.04487639  0.74921011    -0.11200
C2247       C  0.43365518  0.03112444  0.74972809     0.02900
C2248       C  0.45194819  0.03539504  0.74202453     0.00600
C2249       C  0.45527398  0.05389369  0.73470677    -0.11100
C2250       C  0.44061949  0.06796665  0.73496055     0.02800
H2251       H  0.40471325  0.04129695  0.75470854     0.15800
H2252       H  0.46938984  0.05741160  0.72903584     0.15800
C2253       C  0.44477695  0.08685893  0.72771311     0.37400
C2254       C  0.42960447  0.01262969  0.75807214     0.37300
N2255       N  0.44818672  0.10206191  0.72202994    -0.42900
N2256       N  0.42630073  0.99788424  0.76491466    -0.42900
C2257       C  0.60601034  0.92165655  0.72326068     0.00700
C2258       C  0.60569464  0.91495857  0.70412553    -0.11200
C2259       C  0.61418643  0.92555254  0.68913425     0.02900
C2260       C  0.62361835  0.94295721  0.69333746     0.00600
C2261       C  0.62397847  0.94948036  0.71257368    -0.11100
C2262       C  0.61520197  0.93910606  0.72742052     0.02800
H2263       H  0.59897240  0.90131863  0.70094801     0.15800
H2264       H  0.63115020  0.96284453  0.71597825     0.15800
C2265       C  0.61652558  0.94629894  0.74693154     0.37400
C2266       C  0.61289430  0.91837729  0.66962209     0.37300
N2267       N  0.61773200  0.95216643  0.76252407    -0.42900
N2268       N  0.61194514  0.91256173  0.65398955    -0.42900
C2269       C  0.57056508  0.89256841  0.77890558     0.00700
C2270       C  0.57587991  0.89352393  0.79853412    -0.11200
C2271       C  0.56371130  0.88642521  0.81298122     0.02900
C2272       C  0.54626493  0.87738421  0.80777577     0.00600
C2273       C  0.54077544  0.87685218  0.78815945    -0.11100
C2274       C  0.55265418  0.88447075  0.77378056     0.02800
H2275       H  0.58973061  0.89958967  0.80254393     0.15800
H2276       H  0.52735613  0.86997147  0.78403033     0.15800
C2277       C  0.54672535  0.88261736  0.75382025     0.37400
C2278       C  0.56938980  0.88853253  0.83299048     0.37300
N2279       N  0.54189694  0.88107199  0.73784390    -0.42900
N2280       N  0.57388177  0.89023635  0.84904685    -0.42900
C2281       C  0.56880340  0.92535160  0.74807263     0.00700
C2282       C  0.55784585  0.92634878  0.73093393    -0.11200
C2283       C  0.54268939  0.93969697  0.72877068     0.02900
C2284       C  0.53838886  0.95260278  0.74397123     0.00600
C2285       C  0.54972747  0.95168335  0.76093835    -0.11100
C2286       C  0.56477454  0.93837169  0.76303178     0.02800
H2287       H  0.56092775  0.91636111  0.71937519     0.15800
H2288       H  0.54703317  0.96161685  0.77264514     0.15800
C2289       C  0.57642587  0.93894834  0.78038431     0.37400
C2290       C  0.53155393  0.93932453  0.71104985     0.37300
N2291       N  0.58576743  0.93964118  0.79430930    -0.42900
N2292       N  0.52270628  0.93891137  0.69679103    -0.42900
C2293       C  0.38922853  0.91689103  0.72250795     0.00700
C2294       C  0.39343558  0.91142946  0.70345663    -0.11200
C2295       C  0.38533898  0.92136675  0.68765077     0.02900
C2296       C  0.37256780  0.93677108  0.69090100     0.00600
C2297       C  0.36831000  0.94207191  0.70999244    -0.11100
C2298       C  0.37653649  0.93232697  0.72571689     0.02800
H2299       H  0.40287126  0.89927270  0.70095695     0.15800
H2300       H  0.35874721  0.95412520  0.71257148     0.15800
C2301       C  0.37147058  0.93819436  0.74503876     0.37400
C2302       C  0.39058009  0.91584171  0.66828920     0.37300
N2303       N  0.36734753  0.94292010  0.76050076    -0.42900
N2304       N  0.39474881  0.91147311  0.65273060    -0.42900
C2305       C  0.42407720  0.88844883  0.77940731     0.00700
C2306       C  0.44229492  0.88229181  0.77327906    -0.11200
C2307       C  0.45530676  0.87368501  0.78628696     0.02900
C2308       C  0.45044719  0.87176654  0.80607303     0.00600
C2309       C  0.43241258  0.87849238  0.81229058    -0.11100
C2310       C  0.41914423  0.88648830  0.79911339     0.02800
H2311       H  0.44591567  0.88316273  0.75806142     0.15800
H2312       H  0.42859830  0.87722412  0.82742612     0.15800
C2313       C  0.40043316  0.89235011  0.80609142     0.37400
C2314       C  0.47315487  0.86605478  0.77876648     0.37300
N2315       N  0.38541104  0.89699685  0.81166703    -0.42900
N2316       N  0.48743913  0.85992234  0.77272884    -0.42900
C2317       C  0.45372294  0.95086095  0.74571780     0.00700
C2318       C  0.44086718  0.95063903  0.76138477    -0.11200
C2319       C  0.42669368  0.93641482  0.76310410     0.02900
C2320       C  0.42522561  0.92183567  0.74913471     0.00600
C2321       C  0.43810425  0.92182733  0.73357852    -0.11100
C2322       C  0.45237328  0.93600325  0.73184398     0.02800
H2323       H  0.44171561  0.96176513  0.77224592     0.15800
H2324       H  0.43719298  0.91046458  0.72296852     0.15800
C2325       C  0.46609446  0.93425082  0.71632520     0.37400
C2326       C  0.41337451  0.93741403  0.77900015     0.37300
N2327       N  0.47716277  0.93265947  0.70396412    -0.42900
N2328       N  0.40268211  0.93838031  0.79175001    -0.42900
C2329       C  0.61606805  0.71477317  0.06370913     0.00700
C2330       C  0.60630727  0.70981028  0.04653273    -0.11200
C2331       C  0.61156132  0.69357773  0.03590402     0.02900
C2332       C  0.62899317  0.68378840  0.04029631     0.00600
C2333       C  0.63817902  0.68786472  0.05791888    -0.11100
C2334       C  0.63124435  0.70236048  0.07006240     0.02800
H2335       H  0.59507550  0.71880859  0.04061449     0.15800
H2336       H  0.65126589  0.68024051  0.06197371     0.15800
C2337       C  0.64015946  0.70393324  0.08893795     0.37400
C2338       C  0.59950823  0.68802159  0.01972198     0.37300
N2339       N  0.64738034  0.70504155  0.10404304    -0.42900
N2340       N  0.58980423  0.68355378  0.00681764    -0.42900
C2341       C  0.58158447  0.76965859  0.09610907     0.00700
C2342       C  0.58120152  0.78916065  0.09115718    -0.11200
C2343       C  0.56798393  0.80170043  0.09985202     0.02900
C2344       C  0.55538658  0.79485268  0.11420610     0.00600
C2345       C  0.55579701  0.77534160  0.11911793    -0.11100
C2346       C  0.56867047  0.76273900  0.11012621     0.02800
H2347       H  0.59114391  0.79453667  0.08039887     0.15800
H2348       H  0.54590164  0.76995322  0.12992060     0.15800
C2349       C  0.56883412  0.74288679  0.11597080     0.37400
C2350       C  0.56702883  0.82134145  0.09339989     0.37300
N2351       N  0.56900328  0.72698653  0.12069693    -0.42900
N2352       N  0.56603224  0.83707356  0.08820062    -0.42900
C2353       C  0.57742945  0.74090690  0.06309847     0.00700
C2354       C  0.57400181  0.75622730  0.05035155    -0.11200
C2355       C  0.55911373  0.75562500  0.03658406     0.02900
C2356       C  0.54726283  0.73921468  0.03514232     0.00600
C2357       C  0.55048559  0.72396747  0.04819491    -0.11100
C2358       C  0.56523126  0.72484308  0.06228782     0.02800
H2359       H  0.58340307  0.76859319  0.05091295     0.15800
H2360       H  0.54144967  0.71135098  0.04742337     0.15800
C2361       C  0.56821405  0.70884389  0.07517577     0.37400
C2362       C  0.55698778  0.77178192  0.02363954     0.37300
N2363       N  0.57074188  0.69593339  0.08541476    -0.42900
N2364       N  0.55531036  0.78477272  0.01332924    -0.42900
C2365       C  0.38149773  0.67884613  0.04439718     0.00700
C2366       C  0.39874641  0.67159636  0.05238559    -0.11200
C2367       C  0.40921739  0.68220048  0.06615295     0.02900
C2368       C  0.40281098  0.70064311  0.07145489     0.00600
C2369       C  0.38550024  0.70774648  0.06357636    -0.11100
C2370       C  0.37474476  0.69696334  0.05035645     0.02800
H2371       H  0.40390763  0.65761274  0.04797806     0.15800
H2372       H  0.38014785  0.72162512  0.06812908     0.15800
C2373       C  0.35673186  0.70471570  0.04308313     0.37400
C2374       C  0.42584500  0.67349244  0.07532991     0.37300
N2375       N  0.34225352  0.71085046  0.03728266    -0.42900
N2376       N  0.43898296  0.66624198  0.08280243    -0.42900
C2377       C  0.45899152  0.78372791  0.12051112     0.00700
C2378       C  0.46174545  0.76638681  0.13042578    -0.11200
C2379       C  0.45276880  0.74957940  0.12410682     0.02900
C2380       C  0.44079720  0.74987237  0.10749217     0.00600
C2381       C  0.43834500  0.76714742  0.09729586    -0.11100
C2382       C  0.44735510  0.78401822  0.10367322     0.02800
H2383       H  0.47122311  0.76594854  0.14298500     0.15800
H2384       H  0.42891875  0.76759230  0.08470987     0.15800
C2385       C  0.44475458  0.80141637  0.09265501     0.37400
C2386       C  0.45633612  0.73207019  0.13470758     0.37300
N2387       N  0.44277112  0.81539652  0.08383663    -0.42900
N2388       N  0.45925419  0.71801759  0.14315136    -0.42900
C2389       C  0.43955889  0.72604964  0.06918762     0.00700
C2390       C  0.43387973  0.73687299  0.05299803    -0.11200
C2391       C  0.44618961  0.73885413  0.03702106     0.02900
C2392       C  0.46432173  0.72946399  0.03692446     0.00600
C2393       C  0.46973782  0.71829056  0.05300450    -0.11100
C2394       C  0.45767676  0.71679564  0.06915325     0.02800
H2395       H  0.41987944  0.74387467  0.05296422     0.15800
H2396       H  0.48367436  0.71113510  0.05317277     0.15800
C2397       C  0.46419066  0.70579102  0.08564384     0.37400
C2398       C  0.43969706  0.75011650  0.02067800     0.37300
N2399       N  0.46950329  0.69697941  0.09885844    -0.42900
N2400       N  0.43452135  0.75911919  0.00754083    -0.42900
C2401       C  0.61341381  0.71915147  0.91838387     0.00700
C2402       C  0.63285321  0.72193883  0.92356599    -0.11200
C2403       C  0.64270352  0.70871324  0.93517848     0.02900
C2404       C  0.63307175  0.69228051  0.94180024     0.00600
C2405       C  0.61364946  0.68940122  0.93669863    -0.11100
C2406       C  0.60378744  0.70262083  0.92490871     0.02800
H2407       H  0.64038951  0.73453564  0.91843436     0.15800
H2408       H  0.60623843  0.67677002  0.94190968     0.15800
C2409       C  0.58425789  0.69837426  0.91897521     0.37400
C2410       C  0.66251912  0.71250620  0.94055565     0.37300
N2411       N  0.56862372  0.69476974  0.91424941    -0.42900
N2412       N  0.67834133  0.71561664  0.94500737    -0.42900
C2413       C  0.57363420  0.77020454  0.88648057     0.00700
C2414       C  0.56080447  0.76784740  0.87093718    -0.11200
C2415       C  0.54854034  0.78274592  0.86517904     0.02900
C2416       C  0.54937383  0.80051997  0.87475950     0.00600
C2417       C  0.56208308  0.80288191  0.89044188    -0.11100
C2418       C  0.57418626  0.78780706  0.89640380     0.02800
H2419       H  0.56049173  0.75435803  0.86320985     0.15800
H2420       H  0.56254720  0.81648010  0.89794593     0.15800
C2421       C  0.58761931  0.79096015  0.91212013     0.37400
C2422       C  0.53518906  0.77954790  0.84937725     0.37300
N2423       N  0.59842692  0.79353000  0.92468226    -0.42900
N2424       N  0.52440669  0.77703653  0.83678009    -0.42900
C2425       C  0.57470173  0.74333442  0.92190588     0.00700
C2426       C  0.55532020  0.74000083  0.91681271    -0.11200
C2427       C  0.54088368  0.73897918  0.93088216     0.02900
C2428       C  0.54570760  0.74114416  0.95058506     0.00600
C2429       C  0.56497722  0.74491538  0.95575355    -0.11100
C2430       C  0.57943556  0.74615385  0.94159888     0.02800
H2431       H  0.55151199  0.73799580  0.90172239     0.15800
H2432       H  0.56871889  0.74692107  0.97087273     0.15800
C2433       C  0.59876655  0.75112501  0.94755402     0.37400
C2434       C  0.52116134  0.73608863  0.92468803     0.37300
N2435       N  0.61421443  0.75524289  0.95246085    -0.42900
N2436       N  0.50537989  0.73398554  0.91952719    -0.42900
C2437       C  0.39535649  0.71188550  0.91759773     0.00700
C2438       C  0.40523081  0.69532283  0.92368754    -0.11200
C2439       C  0.39682587  0.68270131  0.93697194     0.02900
C2440       C  0.37801473  0.68631809  0.94375758     0.00600
C2441       C  0.36822252  0.70288310  0.93778750    -0.11100
C2442       C  0.37676856  0.71573974  0.92499963     0.02800
H2443       H  0.41930027  0.69201163  0.91784143     0.15800
H2444       H  0.35395568  0.70591028  0.94344118     0.15800
C2445       C  0.36630635  0.73302737  0.92006573     0.37400
C2446       C  0.40772132  0.66625380  0.94355728     0.37300
N2447       N  0.35792929  0.74688039  0.91612375    -0.42900
N2448       N  0.41652950  0.65315326  0.94895261    -0.42900
C2449       C  0.43307119  0.76404618  0.88696144     0.00700
C2450       C  0.42613383  0.78278440  0.88947419    -0.11200
C2451       C  0.43716839  0.79859093  0.88384455     0.02900
C2452       C  0.45508202  0.79568354  0.87473082     0.00600
C2453       C  0.46217722  0.77689157  0.87266760    -0.11100
C2454       C  0.45144746  0.76114293  0.87894167     0.02800
H2455       H  0.41193340  0.78503640  0.89560694     0.15800
H2456       H  0.47610949  0.77454588  0.86597300     0.15800
C2457       C  0.45922184  0.74213081  0.87634352     0.37400
C2458       C  0.43000715  0.81760360  0.88777026     0.37300
N2459       N  0.46548254  0.72688797  0.87434714    -0.42900
N2460       N  0.42436519  0.83286767  0.89100106    -0.42900
C2461       C  0.46180214  0.73283902  0.95063618     0.00700
C2462       C  0.44784733  0.74757356  0.95005987    -0.11200
C2463       C  0.43375563  0.74838849  0.93539913     0.02900
C2464       C  0.43363628  0.73459448  0.92065344     0.00600
C2465       C  0.44740254  0.71982561  0.92114267    -0.11100
C2466       C  0.46119659  0.71859783  0.93609519     0.02800
H2467       H  0.44783807  0.75846873  0.96119964     0.15800
H2468       H  0.44744454  0.70931630  0.90964309     0.15800
C2469       C  0.47485258  0.70293666  0.93567586     0.37400
C2470       C  0.41933827  0.76331741  0.93587069     0.37300
N2471       N  0.48573666  0.69032981  0.93524789    -0.42900
N2472       N  0.40772827  0.77526421  0.93632554    -0.42900
C2473       C  0.59853629  0.06431191  0.27113996     0.00700
C2474       C  0.59500758  0.06749754  0.29084846    -0.11200
C2475       C  0.60239087  0.05499312  0.30500708     0.02900
C2476       C  0.61380450  0.03921695  0.29949158     0.00600
C2477       C  0.61684691  0.03573764  0.27973200    -0.11100
C2478       C  0.60938468  0.04816959  0.26557682     0.02800
H2479       H  0.58684805  0.08003252  0.29518742     0.15800
H2480       H  0.62550917  0.02352495  0.27541453     0.15800
C2481       C  0.61411126  0.04480408  0.24556173     0.37400
C2482       C  0.59811617  0.05854927  0.32507300     0.37300
N2483       N  0.61799642  0.04218118  0.22953056    -0.42900
N2484       N  0.59467146  0.06129969  0.34118261    -0.42900
C2485       C  0.56708151  0.10309079  0.21868087     0.00700
C2486       C  0.55582158  0.11920454  0.22314712    -0.11200
C2487       C  0.54424825  0.12805366  0.20905585     0.02900
C2488       C  0.54340895  0.12046626  0.19017759     0.00600
C2489       C  0.55484389  0.10454545  0.18557162    -0.11100
C2490       C  0.56699758  0.09610602  0.19953259     0.02800
H2491       H  0.55632098  0.12506770  0.23765610     0.15800
H2492       H  0.55441049  0.09886866  0.17099223     0.15800
C2493       C  0.58020519  0.08135431  0.19341726     0.37400
C2494       C  0.53311954  0.14477089  0.21428506     0.37300
N2495       N  0.59089946  0.06975236  0.18813742    -0.42900
N2496       N  0.52416185  0.15815408  0.21840288    -0.42900
C2497       C  0.53632884  0.03582026  0.23764715     0.00700
C2498       C  0.53508068  0.04981282  0.25219217    -0.11200
C2499       C  0.54912461  0.06414900  0.25397527     0.02900
C2500       C  0.56493538  0.06454055  0.24130020     0.00600
C2501       C  0.56646727  0.05038275  0.22709039    -0.11100
C2502       C  0.55224662  0.03627020  0.22494861     0.02800
H2503       H  0.52302822  0.04962764  0.26212577     0.15800
H2504       H  0.57902339  0.05011309  0.21791258     0.15800
C2505       C  0.55486257  0.02195155  0.21018529     0.37400
C2506       C  0.54720947  0.07828289  0.26900281     0.37300
N2507       N  0.55702869  0.01052893  0.19830406    -0.42900
N2508       N  0.54573994  0.08960782  0.28108926    -0.42900
C2509       C  0.37295547  0.03573151  0.28796763     0.00700
C2510       C  0.38793601  0.04876449  0.29147104    -0.11200
C2511       C  0.39419075  0.06113794  0.27676937     0.02900
C2512       C  0.38540145  0.06040348  0.25830346     0.00600
C2513       C  0.37056381  0.04726961  0.25484272    -0.11100
C2514       C  0.36432847  0.03496402  0.26945778     0.02800
H2515       H  0.39450897  0.04943246  0.30573579     0.15800
H2516       H  0.36361027  0.04687384  0.24073833     0.15800
C2517       C  0.34858070  0.02208582  0.26536197     0.37400
C2518       C  0.40888047  0.07507598  0.28122272     0.37300
N2519       N  0.33584832  0.01187406  0.26214328    -0.42900
N2520       N  0.42057121  0.08630335  0.28492629    -0.42900
C2521       C  0.41842084  0.09703376  0.20581631     0.00700
C2522       C  0.42387491  0.11621965  0.20793386    -0.11200
C2523       C  0.43656034  0.12482181  0.19499379     0.02900
C2524       C  0.44372071  0.11435578  0.17917049     0.00600
C2525       C  0.43821437  0.09517583  0.17682908    -0.11100
C2526       C  0.42560406  0.08643711  0.19001990     0.02800
H2527       H  0.41843785  0.12444480  0.22003534     0.15800
H2528       H  0.44408653  0.08696519  0.16493844     0.15800
C2529       C  0.41998229  0.06685507  0.18672850     0.37400
C2530       C  0.44296933  0.14409350  0.19887218     0.37300
N2531       N  0.41562198  0.05113193  0.18389521    -0.42900
N2532       N  0.44831623  0.15943650  0.20208742    -0.42900
C2533       C  0.42184295  0.06110355  0.23332670     0.00700
C2534       C  0.41772933  0.04178399  0.22978770    -0.11200
C2535       C  0.43228591  0.02785866  0.23061176     0.02900
C2536       C  0.45137807  0.03318039  0.23520015     0.00600
C2537       C  0.45548994  0.05242416  0.23920827    -0.11100
C2538       C  0.44087266  0.06639951  0.23829784     0.02800
H2539       H  0.40306667  0.03765684  0.22616810     0.15800
H2540       H  0.47013883  0.05653028  0.24294878     0.15800
C2541       C  0.44555697  0.08589328  0.24315932     0.37400
C2542       C  0.42717613  0.00815944  0.22712393     0.37300
N2543       N  0.44938942  0.10150049  0.24716536    -0.42900
N2544       N  0.42285808  0.99240303  0.22446239    -0.42900
C2545       C  0.60202108  0.92118966  0.26703247     0.00700
C2546       C  0.60273353  0.91410284  0.28606004    -0.11200
C2547       C  0.60889860  0.92567294  0.30141647     0.02900
C2548       C  0.61543872  0.94442216  0.29765347     0.00600
C2549       C  0.61456399  0.95146904  0.27857059    -0.11100
C2550       C  0.60767682  0.94016861  0.26338135     0.02800
H2551       H  0.59848710  0.89943874  0.28889141     0.15800
H2552       H  0.61959292  0.96583352  0.27547780     0.15800
C2553       C  0.60762419  0.94805003  0.24406208     0.37400
C2554       C  0.60834141  0.91801313  0.32082154     0.37300
N2555       N  0.60758776  0.95448322  0.22862003    -0.42900
N2556       N  0.60795485  0.91183693  0.33636347    -0.42900
C2557       C  0.57166656  0.88793385  0.21082935     0.00700
C2558       C  0.57404020  0.89310463  0.19135231    -0.11200
C2559       C  0.56264158  0.88468333  0.17683161     0.02900
C2560       C  0.54907011  0.87054961  0.18181210     0.00600
C2561       C  0.54645524  0.86576841  0.20133362    -0.11100
C2562       C  0.55757659  0.87435573  0.21581076     0.02800
H2563       H  0.58501190  0.90343527  0.18748158     0.15800
H2564       H  0.53579159  0.85511776  0.20521981     0.15800
C2565       C  0.55475347  0.86859438  0.23566508     0.37400
C2566       C  0.56491935  0.89079819  0.15703549     0.37300
N2567       N  0.55257186  0.86401508  0.25159554    -0.42900
N2568       N  0.56663326  0.89579378  0.14116968    -0.42900
C2569       C  0.56775000  0.92326303  0.23736265     0.00700
C2570       C  0.56501780  0.93425142  0.22056294    -0.11200
C2571       C  0.55059972  0.94838760  0.21944884     0.02900
C2572       C  0.53858417  0.95196822  0.23559529     0.00600
C2573       C  0.54125649  0.94070435  0.25232363    -0.11100
C2574       C  0.55542184  0.92631714  0.25319926     0.02800
H2575       H  0.57444721  0.93193321  0.20834092     0.15800
H2576       H  0.53192635  0.94280225  0.26467639     0.15800
C2577       C  0.55625282  0.91417796  0.27008022     0.37400
C2578       C  0.54880003  0.95902813  0.20159127     0.37300
N2579       N  0.55666573  0.90442831  0.28363560    -0.42900
N2580       N  0.54738582  0.96737438  0.18716354    -0.42900
C2581       C  0.39321755  0.91476544  0.26394735     0.00700
C2582       C  0.38581747  0.93239224  0.25763303    -0.11200
C2583       C  0.37705990  0.94503646  0.27065224     0.02900
C2584       C  0.37653706  0.94060835  0.29067093     0.00600
C2585       C  0.38421713  0.92301129  0.29696909    -0.11100
C2586       C  0.39197317  0.90991322  0.28374407     0.02800
H2587       H  0.38600697  0.93585528  0.24232865     0.15800
H2588       H  0.38378295  0.91934087  0.31221017     0.15800
C2589       C  0.39829651  0.89143015  0.29075340     0.37400
C2590       C  0.36778977  0.96196959  0.26291974     0.37300
N2591       N  0.40333139  0.87656780  0.29628649    -0.42900
N2592       N  0.36031404  0.97548742  0.25665866    -0.42900
C2593       C  0.45363386  0.86453139  0.18302661     0.00700
C2594       C  0.45916836  0.86539396  0.20261286    -0.11200
C2595       C  0.44710524  0.87366854  0.21649273     0.02900
C2596       C  0.42907476  0.88140803  0.21089458     0.00600
C2597       C  0.42362610  0.88087000  0.19127902    -0.11100
C2598       C  0.43579910  0.87269391  0.17733650     0.02800
H2599       H  0.47288784  0.85921618  0.20711934     0.15800
H2600       H  0.40964254  0.88652400  0.18691810     0.15800
C2601       C  0.42973102  0.87283206  0.15733259     0.37400
C2602       C  0.45304738  0.87280144  0.23651996     0.37300
N2603       N  0.42486758  0.87290060  0.14128447    -0.42900
N2604       N  0.45801362  0.87178045  0.25250454    -0.42900
C2605       C  0.45469019  0.94925460  0.23491454     0.00700
C2606       C  0.45361984  0.93763608  0.25153012    -0.11200
C2607       C  0.44082086  0.92219930  0.25253570     0.02900
C2608       C  0.42864482  0.91798969  0.23672008     0.00600
C2609       C  0.42957692  0.92948096  0.22008749    -0.11100
C2610       C  0.44232314  0.94506085  0.21906222     0.02800
H2611       H  0.46306168  0.94041236  0.26378034     0.15800
H2612       H  0.42003600  0.92640780  0.20799485     0.15800
C2613       C  0.44174286  0.95685573  0.20189572     0.37400
C2614       C  0.44108628  0.91046854  0.26971081     0.37300
N2615       N  0.44108692  0.96637717  0.18817879    -0.42900
N2616       N  0.44173626  0.90117260  0.28357723    -0.42900
C2617       C  0.30958120  0.03215004  0.60835850     0.00700
C2618       C  0.31807070  0.04849997  0.60031258    -0.11200
C2619       C  0.30665412  0.06286026  0.59183223     0.02900
C2620       C  0.28642101  0.06066534  0.59070273     0.00600
C2621       C  0.27801950  0.04381926  0.59765398    -0.11100
C2622       C  0.28935131  0.02971923  0.60671751     0.02800
H2623       H  0.33358891  0.05036907  0.60136559     0.15800
H2624       H  0.26243573  0.04227532  0.59719611     0.15800
C2625       C  0.27973190  0.01354308  0.61535440     0.37400
C2626       C  0.31596391  0.08000736  0.58497734     0.37300
N2627       N  0.27199066  0.00060723  0.62228525    -0.42900
N2628       N  0.32347998  0.09375927  0.57956008    -0.42900
C2629       C  0.23613683  0.10274614  0.56028860     0.00700
C2630       C  0.21673646  0.09734465  0.56212254    -0.11200
C2631       C  0.20217200  0.10682931  0.55153545     0.02900
C2632       C  0.20701204  0.12194848  0.53893560     0.00600
C2633       C  0.22643149  0.12734026  0.53718897    -0.11100
C2634       C  0.24093663  0.11796778  0.54781871     0.02800
H2635       H  0.21294423  0.08596354  0.57207330     0.15800
H2636       H  0.23026586  0.13870724  0.52722885     0.15800
C2637       C  0.26070780  0.12412597  0.54570702     0.37400
C2638       C  0.18241587  0.10068654  0.55350731     0.37300
N2639       N  0.27657958  0.12899070  0.54412265    -0.42900
N2640       N  0.16653431  0.09584687  0.55504308    -0.42900
C2641       C  0.25369281  0.03462596  0.52794378     0.00700
C2642       C  0.26949246  0.04723939  0.52764337    -0.11200
C2643       C  0.27147419  0.06172668  0.54153770     0.02900
C2644       C  0.25769129  0.06370245  0.55628358     0.00600
C2645       C  0.24183888  0.05131340  0.55661340    -0.11100
C2646       C  0.23971484  0.03686292  0.54265542     0.02800
H2647       H  0.28024349  0.04592555  0.51638667     0.15800
H2648       H  0.23135624  0.05269371  0.56810130     0.15800
C2649       C  0.22357774  0.02397233  0.54438357     0.37400
C2650       C  0.28751987  0.07474657  0.54018425     0.37300
N2651       N  0.21068047  0.01358439  0.54577706    -0.42900
N2652       N  0.30032677  0.08526011  0.53894570    -0.42900
C2653       C  0.27721737  0.06317091  0.37831137     0.00700
C2654       C  0.29686605  0.06794784  0.37753209    -0.11200
C2655       C  0.31051815  0.05498188  0.37036431     0.02900
C2656       C  0.30445044  0.03710235  0.36311685     0.00600
C2657       C  0.28477065  0.03227630  0.36411096    -0.11100
C2658       C  0.27118851  0.04509281  0.37169655     0.02800
H2659       H  0.30152868  0.08191683  0.38247516     0.15800
H2660       H  0.27996086  0.01859167  0.35853219     0.15800
C2661       C  0.25104143  0.03984949  0.37143336     0.37400
C2662       C  0.33064592  0.06030374  0.37062351     0.37300
N2663       N  0.23488834  0.03565083  0.37114755    -0.42900
N2664       N  0.34678931  0.06453885  0.37075598    -0.42900
C2665       C  0.22843386  0.10127381  0.41468820     0.00700
C2666       C  0.20841195  0.09847353  0.41336018    -0.11200
C2667       C  0.19584106  0.10765341  0.42623572     0.02900
C2668       C  0.20336177  0.11982138  0.44067082     0.00600
C2669       C  0.22341439  0.12241878  0.44206680    -0.11100
C2670       C  0.23592488  0.11338704  0.42914119     0.02800
H2671       H  0.20259111  0.08949036  0.40197576     0.15800
H2672       H  0.22925471  0.13173166  0.45317076     0.15800
C2673       C  0.25634486  0.11733952  0.43046174     0.37400
C2674       C  0.17531980  0.10452133  0.42437100     0.37300
N2675       N  0.27269505  0.12061551  0.43140222    -0.42900
N2676       N  0.15884294  0.10213704  0.42289767    -0.42900
C2677       C  0.25117057  0.06303015  0.41469423     0.00700
C2678       C  0.23458240  0.05186488  0.41701376    -0.11200
C2679       C  0.23399707  0.03709268  0.43081757     0.02900
C2680       C  0.25018417  0.03354779  0.44303684     0.00600
C2681       C  0.26674682  0.04492215  0.44066061    -0.11100
C2682       C  0.26730473  0.05954574  0.42672615     0.02800
H2683       H  0.22221569  0.05445569  0.40764479     0.15800
H2684       H  0.27923786  0.04262489  0.44994292     0.15800
C2685       C  0.28432246  0.07130081  0.42549030     0.37400
C2686       C  0.21690175  0.02534635  0.43144727     0.37300
N2687       N  0.29797289  0.08075556  0.42457401    -0.42900
N2688       N  0.20321961  0.01589217  0.43183489    -0.42900
C2689       C  0.27543655  0.91647292  0.59362656     0.00700
C2690       C  0.27095366  0.92883127  0.60888234    -0.11200
C2691       C  0.28545822  0.93910858  0.61840851     0.02900
C2692       C  0.30488620  0.93705952  0.61272712     0.00600
C2693       C  0.30939840  0.92487230  0.59729179    -0.11100
C2694       C  0.29483099  0.91449551  0.58779483     0.02800
H2695       H  0.25612535  0.93000798  0.61373028     0.15800
H2696       H  0.32426675  0.92356959  0.59263187     0.15800
C2697       C  0.30013752  0.90163925  0.57241106     0.37400
C2698       C  0.28015638  0.95152302  0.63418147     0.37300
N2699       N  0.30444082  0.89137453  0.56004634    -0.42900
N2700       N  0.27596990  0.96142598  0.64687989    -0.42900
C2701       C  0.22039547  0.88622312  0.55802585     0.00700
C2702       C  0.22646680  0.87878664  0.54031139    -0.11200
C2703       C  0.21341330  0.86953163  0.52795828     0.02900
C2704       C  0.19361885  0.86820113  0.53296527     0.00600
C2705       C  0.18743864  0.87648883  0.55034290    -0.11100
C2706       C  0.20070206  0.88506965  0.56303059     0.02800
H2707       H  0.24169083  0.87910151  0.53670388     0.15800
H2708       H  0.17231187  0.87577839  0.55423671     0.15800
C2709       C  0.19393015  0.89201216  0.58142825     0.37400
C2710       C  0.22093935  0.86066856  0.51070504     0.37300
N2711       N  0.18853765  0.89747860  0.59623048    -0.42900
N2712       N  0.22698245  0.85363604  0.49685985    -0.42900
C2713       C  0.24843643  0.92101770  0.55762744     0.00700
C2714       C  0.26203645  0.92008834  0.54277178    -0.11200
C2715       C  0.26297955  0.93440745  0.52853682     0.02900
C2716       C  0.24995335  0.95007089  0.52889992     0.00600
C2717       C  0.23618782  0.95086438  0.54378155    -0.11100
C2718       C  0.23546281  0.93658665  0.55814021     0.02800
H2719       H  0.27172695  0.90790895  0.54214100     0.15800
H2720       H  0.22612969  0.96278850  0.54434064     0.15800
C2721       C  0.22156606  0.93831994  0.57348010     0.37400
C2722       C  0.27685586  0.93213480  0.51322467     0.37300
N2723       N  0.21045011  0.93984251  0.58580880    -0.42900
N2724       N  0.28795802  0.93025085  0.50093491    -0.42900
C2725       C  0.30517989  0.94138536  0.36471862     0.00700
C2726       C  0.28590852  0.94783549  0.36584601    -0.11200
C2727       C  0.27145616  0.93644764  0.37396141     0.02900
C2728       C  0.27595649  0.91787950  0.38056131     0.00600
C2729       C  0.29514616  0.91133654  0.37946853    -0.11100
C2730       C  0.30982552  0.92309141  0.37220062     0.02800
H2731       H  0.28209343  0.96185378  0.36018215     0.15800
H2732       H  0.29865644  0.89696419  0.38434901     0.15800
C2733       C  0.32949810  0.91617463  0.37283923     0.37400
C2734       C  0.25196003  0.94380920  0.37445891     0.37300
N2735       N  0.34526730  0.91062336  0.37335149    -0.42900
N2736       N  0.23636890  0.94981958  0.37487645    -0.42900
C2737       C  0.22143653  0.88395031  0.41341198     0.00700
C2738       C  0.20169301  0.88492235  0.40860048    -0.11200
C2739       C  0.18777061  0.87602906  0.42025450     0.02900
C2740       C  0.19361039  0.86567652  0.43685813     0.00600
C2741       C  0.21336602  0.86482036  0.44164961    -0.11100
C2742       C  0.22722482  0.87376992  0.43009571     0.02800
H2743       H  0.19719930  0.89237396  0.39553290     0.15800
H2744       H  0.21797448  0.85691795  0.45440684     0.15800
C2745       C  0.24738976  0.87137610  0.43501953     0.37400
C2746       C  0.16763070  0.87774229  0.41499266     0.37300
N2747       N  0.26355382  0.86932082  0.43889574    -0.42900
N2748       N  0.15146443  0.87903919  0.41079948    -0.42900
C2749       C  0.24775385  0.94925367  0.44451426     0.00700
C2750       C  0.26433506  0.93786065  0.44178160    -0.11200
C2751       C  0.26475075  0.92324803  0.42791443     0.02900
C2752       C  0.24835687  0.91965362  0.41628671     0.00600
C2753       C  0.23166654  0.93073824  0.41911228    -0.11100
C2754       C  0.23125631  0.94553584  0.43285352     0.02800
H2755       H  0.27707745  0.94023173  0.45065578     0.15800
H2756       H  0.21907710  0.92814517  0.41009094     0.15800
C2757       C  0.21400169  0.95713755  0.43393508     0.37400
C2758       C  0.28198822  0.91171634  0.42643691     0.37300
N2759       N  0.20017423  0.96646568  0.43466151    -0.42900
N2760       N  0.29591329  0.90256105  0.42547280    -0.42900
C2761       C  0.07318613  0.70970423  0.59178284     0.00700
C2762       C  0.05677550  0.71647466  0.60133205    -0.11200
C2763       C  0.04434884  0.70384311  0.61091510     0.02900
C2764       C  0.04783168  0.68383235  0.61056191     0.00600
C2765       C  0.06391571  0.67699840  0.60039317    -0.11100
C2766       C  0.07672986  0.68974194  0.59136798     0.02800
H2767       H  0.05425158  0.73177866  0.60223796     0.15800
H2768       H  0.06657998  0.66171307  0.59970255     0.15800
C2769       C  0.09359736  0.68202621  0.58198233     0.37400
C2770       C  0.02843579  0.71184285  0.62164597     0.37300
N2771       N  0.10714789  0.67581055  0.57452630    -0.42900
N2772       N  0.01569200  0.71824810  0.63025523    -0.42900
C2773       C  0.11005481  0.76236207  0.55904729     0.00700
C2774       C  0.10207144  0.78087504  0.55964106    -0.11200
C2775       C  0.10970614  0.79573425  0.54823019     0.02900
C2776       C  0.12546138  0.79207060  0.53589809     0.00600
C2777       C  0.13329846  0.77355167  0.53527773    -0.11100
C2778       C  0.12586607  0.75882332  0.54676012     0.02800
H2779       H  0.09020794  0.78383025  0.56935470     0.15800
H2780       H  0.14520401  0.77057488  0.52560760     0.15800
C2781       C  0.13465573  0.74008944  0.54559793     0.37400
C2782       C  0.10122894  0.81458634  0.54936546     0.37300
N2783       N  0.14171495  0.72507884  0.54473562    -0.42900
N2784       N  0.09447971  0.82972975  0.55033709    -0.42900
C2785       C  0.04255388  0.74425179  0.52921802     0.00700
C2786       C  0.05689879  0.73008154  0.52741468    -0.11200
C2787       C  0.07147432  0.72790642  0.54143377     0.02900
C2788       C  0.07170553  0.73971198  0.55787928     0.00600
C2789       C  0.05749342  0.75394292  0.55977526    -0.11100
C2790       C  0.04299192  0.75635082  0.54559034     0.02800
H2791       H  0.05688400  0.72083047  0.51484037     0.15800
H2792       H  0.05771844  0.76308107  0.57241693     0.15800
C2793       C  0.02830055  0.77073776  0.54857834     0.37400
C2794       C  0.08640957  0.71380509  0.53845820     0.37300
N2795       N  0.01648229  0.78223124  0.55099002    -0.42900
N2796       N  0.09844783  0.70257069  0.53593578    -0.42900
C2797       C  0.04239769  0.68428711  0.36859191     0.00700
C2798       C  0.05272521  0.68182881  0.38594749    -0.11200
C2799       C  0.06571177  0.69584925  0.39241255     0.02900
C2800       C  0.06856439  0.71259733  0.38132892     0.00600
C2801       C  0.05792786  0.71516092  0.36415841    -0.11100
C2802       C  0.04478598  0.70129319  0.35784955     0.02800
H2803       H  0.05082244  0.66881114  0.39428583     0.15800
H2804       H  0.06014835  0.72792011  0.35549261     0.15800
C2805       C  0.03406395  0.70463636  0.34015645     0.37400
C2806       C  0.07670138  0.69213590  0.40982176     0.37300
N2807       N  0.02542616  0.70724532  0.32599428    -0.42900
N2808       N  0.08543102  0.68884920  0.42377887    -0.42900
C2809       C  0.12583753  0.78994326  0.43791044     0.00700
C2810       C  0.10908109  0.79414545  0.42714711    -0.11200
C2811       C  0.10099228  0.78044907  0.41473036     0.02900
C2812       C  0.10984421  0.76233968  0.41291152     0.00600
C2813       C  0.12684718  0.75835981  0.42331717    -0.11100
C2814       C  0.13464025  0.77182046  0.43607448     0.02800
H2815       H  0.10229167  0.80807857  0.42856475     0.15800
H2816       H  0.13382780  0.74453084  0.42173694     0.15800
C2817       C  0.15147421  0.76665648  0.44741060     0.37400
C2818       C  0.08408104  0.78549815  0.40348079     0.37300
N2819       N  0.16489024  0.76249070  0.45659779    -0.42900
N2820       N  0.07057140  0.78956672  0.39438788    -0.42900
C2821       C  0.07140050  0.74023603  0.41645824     0.00700
C2822       C  0.05284986  0.74668377  0.41127692    -0.11200
C2823       C  0.03858263  0.74939604  0.42530795     0.02900
C2824       C  0.04272226  0.74532070  0.44488699     0.00600
C2825       C  0.06125896  0.73890533  0.45010898    -0.11100
C2826       C  0.07562808  0.73649256  0.43612103     0.02800
H2827       H  0.04958712  0.74964545  0.39620061     0.15800
H2828       H  0.06442574  0.73554061  0.46513274     0.15800
C2829       C  0.09423307  0.72923873  0.44221142     0.37400
C2830       C  0.01963632  0.75574929  0.41920525     0.37300
N2831       N  0.10904285  0.72327986  0.44731325    -0.42900
N2832       N  0.00446132  0.76081250  0.41422348    -0.42900
C2833       C  0.93266803  0.72074403  0.59645719     0.00700
C2834       C  0.94354107  0.72222812  0.61356137    -0.11200
C2835       C  0.95396978  0.70660256  0.62073649     0.02900
C2836       C  0.95308387  0.68889879  0.61106464     0.00600
C2837       C  0.94241380  0.68737800  0.59382759    -0.11100
C2838       C  0.93229284  0.70321272  0.58638982     0.02800
H2839       H  0.94351072  0.73556128  0.62156523     0.15800
H2840       H  0.94198686  0.67381234  0.58625801     0.15800
C2841       C  0.92081317  0.70082318  0.56907239     0.37400
C2842       C  0.96529275  0.70894955  0.63819698     0.37300
N2843       N  0.91163485  0.69883139  0.55517452    -0.42900
N2844       N  0.97437961  0.71080927  0.65217519    -0.42900
C2845       C  0.89269137  0.77020258  0.56222440     0.00700
C2846       C  0.87296624  0.76747564  0.55812245    -0.11200
C2847       C  0.86268526  0.78039210  0.54652430     0.02900
C2848       C  0.87232566  0.79603569  0.53823575     0.00600
C2849       C  0.89201910  0.79878618  0.54212662    -0.11100
C2850       C  0.90219474  0.78622507  0.55433777     0.02800
H2851       H  0.86543013  0.75541902  0.56443742     0.15800
H2852       H  0.89933910  0.81099944  0.53586775     0.15800
C2853       C  0.92179049  0.79099123  0.55956654     0.37400
C2854       C  0.84228138  0.77739863  0.54332251     0.37300
N2855       N  0.93743195  0.79520177  0.56368966    -0.42900
N2856       N  0.82593235  0.77504657  0.54071981    -0.42900
C2857       C  0.93171979  0.74685845  0.55960981     0.00700
C2858       C  0.92558678  0.74317416  0.54054533    -0.11200
C2859       C  0.93875990  0.74345988  0.52512728     0.02900
C2860       C  0.95840533  0.74758538  0.52869181     0.00600
C2861       C  0.96444546  0.75164784  0.54760453    -0.11100
C2862       C  0.95135777  0.75132878  0.56297998     0.02800
H2863       H  0.91050334  0.74004203  0.53775728     0.15800
H2864       H  0.97947759  0.75511080  0.55036752     0.15800
C2865       C  0.95820368  0.75694705  0.58186464     0.37400
C2866       C  0.93176670  0.74006785  0.50571467     0.37300
N2867       N  0.96382841  0.76169496  0.59689687    -0.42900
N2868       N  0.92617512  0.73749728  0.49012297    -0.42900
C2869       C  0.92132819  0.71500582  0.38308675     0.00700
C2870       C  0.93983222  0.72003525  0.37685223    -0.11200
C2871       C  0.95216073  0.70636687  0.36866324     0.02900
C2872       C  0.94644488  0.68692375  0.36754862     0.00600
C2873       C  0.92801025  0.68188190  0.37410291    -0.11100
C2874       C  0.91530148  0.69575924  0.38131347     0.02800
H2875       H  0.94430987  0.73488081  0.37750863     0.15800
H2876       H  0.92343665  0.66707326  0.37333926     0.15800
C2877       C  0.89610363  0.68986293  0.38669029     0.37400
C2878       C  0.97027590  0.71283943  0.36077276     0.37300
N2879       N  0.88065712  0.68516808  0.39082113    -0.42900
N2880       N  0.98481299  0.71797868  0.35447794    -0.42900
C2881       C  0.89198879  0.77296529  0.41497938     0.00700
C2882       C  0.89668635  0.77253684  0.43473602    -0.11200
C2883       C  0.89016345  0.78699043  0.44711852     0.02900
C2884       C  0.87566414  0.80013425  0.44066805     0.00600
C2885       C  0.87472953  0.80296237  0.42049562    -0.11100
C2886       C  0.88251202  0.78947985  0.40771130     0.02800
H2887       H  0.90524302  0.76097653  0.44076791     0.15800
H2888       H  0.86821925  0.81570253  0.41442619     0.15800
C2889       C  0.88079296  0.79310884  0.38719509     0.37400
C2890       C  0.90007802  0.78904795  0.46548205     0.37300
N2891       N  0.87945426  0.79602129  0.37075368    -0.42900
N2892       N  0.90820929  0.79075126  0.48006261    -0.42900
C2893       C  0.92758925  0.74476580  0.41597097     0.00700
C2894       C  0.93894602  0.76134245  0.41713664    -0.11200
C2895       C  0.95379736  0.76298232  0.43103611     0.02900
C2896       C  0.95788188  0.74751579  0.44376743     0.00600
C2897       C  0.94649873  0.73093775  0.44234179    -0.11100
C2898       C  0.93133862  0.72960798  0.42895615     0.02800
H2899       H  0.93584733  0.77318460  0.40741949     0.15800
H2900       H  0.94896605  0.71909977  0.45224733     0.15800
C2901       C  0.91891595  0.71311962  0.42989628     0.37400
C2902       C  0.96443418  0.78068463  0.43182083     0.37300
N2903       N  0.90897051  0.69989496  0.43096539    -0.42900
N2904       N  0.97281609  0.79497406  0.43239061    -0.42900
C2905       C  0.72162491  0.06121128  0.59867565     0.00700
C2906       C  0.70206829  0.06653782  0.59950064    -0.11200
C2907       C  0.68824019  0.05420702  0.60734074     0.02900
C2908       C  0.69412316  0.03667210  0.61576612     0.00600
C2909       C  0.71378512  0.03148382  0.61507384    -0.11100
C2910       C  0.72743358  0.04339976  0.60634989     0.02800
H2911       H  0.69757848  0.08035668  0.59382848     0.15800
H2912       H  0.71850423  0.01806494  0.62150787     0.15800
C2913       C  0.74742841  0.03746369  0.60634441     0.37400
C2914       C  0.66814473  0.05974730  0.60628989     0.37300
N2915       N  0.76344245  0.03265004  0.60634275    -0.42900
N2916       N  0.65204654  0.06422111  0.60543463    -0.42900
C2917       C  0.80303266  0.11154322  0.53963311     0.00700
C2918       C  0.78335691  0.11449818  0.53537276    -0.11200
C2919       C  0.76897299  0.10623479  0.54675020     0.02900
C2920       C  0.77415236  0.09501362  0.56291901     0.00600
C2921       C  0.79377907  0.09186302  0.56714941    -0.11100
C2922       C  0.80822461  0.09978393  0.55547321     0.02800
H2923       H  0.77925732  0.12324824  0.52301071     0.15800
H2924       H  0.79779836  0.08343187  0.57975346     0.15800
C2925       C  0.82819849  0.09551512  0.55983760     0.37400
C2926       C  0.74897172  0.10979098  0.54183773     0.37300
N2927       N  0.84422664  0.09209939  0.56329876    -0.42900
N2928       N  0.73293839  0.11259729  0.53787629    -0.42900
C2929       C  0.74851961  0.05854798  0.56248134     0.00700
C2930       C  0.76589213  0.04882559  0.55884987    -0.11200
C2931       C  0.76688407  0.03418254  0.54499516     0.02900
C2932       C  0.75003240  0.02866578  0.53465317     0.00600
C2933       C  0.73269890  0.03853705  0.53835793    -0.11100
C2934       C  0.73190713  0.05349657  0.55176589     0.02800
H2935       H  0.77873715  0.05267156  0.56697287     0.15800
H2936       H  0.71970705  0.03497861  0.53030667     0.15800
C2937       C  0.71414910  0.06422129  0.55320483     0.37400
C2938       C  0.78540840  0.02519913  0.54184778     0.37300
N2939       N  0.69980432  0.07273323  0.55397944    -0.42900
N2940       N  0.80031246  0.01811984  0.53928338    -0.42900
C2941       C  0.68959389  0.03744322  0.36952056     0.00700
C2942       C  0.68859897  0.04698519  0.38734432    -0.11200
C2943       C  0.70456052  0.05716552  0.39461299     0.02900
C2944       C  0.72184189  0.05797857  0.38389147     0.00600
C2945       C  0.72270471  0.04847937  0.36604783    -0.11100
C2946       C  0.70693210  0.03810132  0.35895676     0.02800
H2947       H  0.67535337  0.04639651  0.39559918     0.15800
H2948       H  0.73577295  0.04931122  0.35752704     0.15800
C2949       C  0.70886197  0.02812423  0.34079863     0.37400
C2950       C  0.70247995  0.06739011  0.41257497     0.37300
N2951       N  0.71032931  0.02010289  0.32625817    -0.42900
N2952       N  0.70064288  0.07556924  0.42698056    -0.42900
C2953       C  0.77500909  0.09295011  0.41893989     0.00700
C2954       C  0.77142412  0.11095307  0.42716383    -0.11200
C2955       C  0.78530213  0.12002016  0.43875117     0.02900
C2956       C  0.80339815  0.11123156  0.44210250     0.00600
C2957       C  0.80704706  0.09318302  0.43389944    -0.11100
C2958       C  0.79301078  0.08399237  0.42243214     0.02800
H2959       H  0.75777222  0.11810986  0.42423850     0.15800
H2960       H  0.82079931  0.08618479  0.43668925     0.15800
C2961       C  0.79765588  0.06573181  0.41393182     0.37400
C2962       C  0.78064835  0.13837369  0.44708552     0.37300
N2963       N  0.80152777  0.05108567  0.40718299    -0.42900
N2964       N  0.77690320  0.15310241  0.45372223    -0.42900
C2965       C  0.74888611  0.05627576  0.42059731     0.00700
C2966       C  0.74456388  0.06151736  0.43968767    -0.11200
C2967       C  0.74405211  0.04772363  0.45451816     0.02900
C2968       C  0.74833730  0.02841395  0.45037132     0.00600
C2969       C  0.75303654  0.02325048  0.43140394    -0.11100
C2970       C  0.75324623  0.03694892  0.41655160     0.02800
H2971       H  0.74138603  0.07636846  0.44290690     0.15800
H2972       H  0.75652661  0.00845780  0.42819003     0.15800
C2973       C  0.75879387  0.03099337  0.39742004     0.37400
C2974       C  0.73953272  0.05369550  0.47395118     0.37300
N2975       N  0.76334653  0.02615842  0.38211470    -0.42900
N2976       N  0.73595316  0.05840849  0.48956025    -0.42900
C2977       C  0.72532640  0.91827486  0.60402034     0.00700
C2978       C  0.72991274  0.93118871  0.61882008    -0.11200
C2979       C  0.71562679  0.94276238  0.62705093     0.02900
C2980       C  0.69625945  0.94120969  0.62076172     0.00600
C2981       C  0.69165857  0.92840273  0.60583544    -0.11100
C2982       C  0.70605540  0.91697277  0.59742445     0.02800
H2983       H  0.74466183  0.93200104  0.62415146     0.15800
H2984       H  0.67685683  0.92743999  0.60071012     0.15800
C2985       C  0.70069041  0.90357421  0.58250218     0.37400
C2986       C  0.72110008  0.95613290  0.64199266     0.37300
N2987       N  0.69642853  0.89280076  0.57054462    -0.42900
N2988       N  0.72542611  0.96690531  0.65393152    -0.42900
C2989       C  0.77653306  0.88257101  0.56809129     0.00700
C2990       C  0.77434505  0.86471612  0.55919297    -0.11200
C2991       C  0.78797888  0.85805300  0.54600170     0.02900
C2992       C  0.80438417  0.86917179  0.54178435     0.00600
C2993       C  0.80694382  0.88681792  0.55109438    -0.11100
C2994       C  0.79316591  0.89352974  0.56429917     0.02800
H2995       H  0.76183116  0.85602292  0.56246875     0.15800
H2996       H  0.81968025  0.89525984  0.54806717     0.15800
C2997       C  0.79685658  0.91108475  0.57460084     0.37400
C2998       C  0.78485345  0.83975577  0.53683616     0.37300
N2999       N  0.79982223  0.92504527  0.58306530    -0.42900
N3000       N  0.78245643  0.82510672  0.52944711    -0.42900
C3001       C  0.74917512  0.91789588  0.56583908     0.00700
C3002       C  0.75357791  0.93709437  0.56974162    -0.11200
C3003       C  0.75377460  0.95081658  0.55488087     0.02900
C3004       C  0.74927144  0.94545785  0.53572127     0.00600
C3005       C  0.74442799  0.92637579  0.53183439    -0.11100
C3006       C  0.74440178  0.91260075  0.54667843     0.02800
H3007       H  0.75721432  0.94125823  0.58440802     0.15800
H3008       H  0.74069859  0.92223296  0.51717054     0.15800
C3009       C  0.73881354  0.89329602  0.54198639     0.37400
C3010       C  0.75833097  0.97039566  0.55964759     0.37300
N3011       N  0.73427255  0.87786348  0.53803161    -0.42900
N3012       N  0.76192702  0.98610291  0.56346679    -0.42900
C3013       C  0.71534446  0.91679806  0.38554917     0.00700
C3014       C  0.72116351  0.93503889  0.37964895    -0.11200
C3015       C  0.70778762  0.94818045  0.37210083     0.02900
C3016       C  0.68796145  0.94331671  0.37088160     0.00600
C3017       C  0.68207080  0.92525603  0.37753153    -0.11100
C3018       C  0.69559433  0.91193635  0.38461184     0.02800
H3019       H  0.73637806  0.93868510  0.38002155     0.15800
H3020       H  0.66690659  0.92145463  0.37686162     0.15800
C3021       C  0.68887969  0.89339723  0.39084281     0.37400
C3022       C  0.71498957  0.96621292  0.36492767     0.37300
N3023       N  0.68344687  0.87855386  0.39583924    -0.42900
N3024       N  0.72079145  0.98070101  0.35932512    -0.42900
C3025       C  0.77050979  0.88299346  0.41709841     0.00700
C3026       C  0.76484545  0.87050367  0.43184576    -0.11200
C3027       C  0.77839588  0.86307711  0.44494847     0.02900
C3028       C  0.79801149  0.86821230  0.44338300     0.00600
C3029       C  0.80366307  0.88097018  0.42878341    -0.11100
C3030       C  0.79004458  0.88838125  0.41561743     0.02800
H3031       H  0.74982775  0.86626232  0.43287200     0.15800
H3032       H  0.81872891  0.88497475  0.42761009     0.15800
C3033       C  0.79646990  0.90116442  0.40057051     0.37400
C3034       C  0.77194377  0.84983545  0.45958546     0.37300
N3035       N  0.80173623  0.91142093  0.38855767    -0.42900
N3036       N  0.76674362  0.83922445  0.47130732    -0.42900
C3037       C  0.74465862  0.91832649  0.41945816     0.00700
C3038       C  0.75794449  0.93332342  0.41825051    -0.11200
C3039       C  0.75914475  0.94714541  0.43287346     0.02900
C3040       C  0.74695799  0.94591420  0.44916813     0.00600
C3041       C  0.73356183  0.93089295  0.45022151    -0.11100
C3042       C  0.73244810  0.91709086  0.43558080     0.02800
H3043       H  0.76721413  0.93429411  0.40572012     0.15800
H3044       H  0.72416416  0.92976746  0.46265418     0.15800
C3045       C  0.71905810  0.90146136  0.43752262     0.37400
C3046       C  0.77228638  0.96292989  0.43031287     0.37300
N3047       N  0.70838792  0.88885782  0.43910854    -0.42900
N3048       N  0.78274593  0.97562275  0.42813927    -0.42900
loop_ 
_geom_bond_atom_site_label_1 
_geom_bond_atom_site_label_2 
_geom_bond_distance 
_geom_bond_site_symmetry_2 
_ccdc_geom_bond_type 
N1            C5   1.351       .  A
N1            C2   1.353       .  A
N1         C3037   1.438       .  S
C2            C3   1.383       .  A
C2         C3013   1.478       .  S
C3            C4   1.379       .  A
C3            H6   1.082       .  S
C4            C5   1.381       .  A
C4            H7   1.082       .  S
C5         C3025   1.473       .  S
N8           C12   1.359       .  A
N8            C9   1.358       .  A
N8         C3001   1.446       .  S
C9           C10   1.381       .  A
C9         C2977   1.479       .  S
C10          C11   1.375       .  A
C10          H13   1.082       .  S
C11          C12   1.381       .  A
C11          H14   1.082       .  S
C12        C2989   1.479       .  S
N15          C19   1.362       .  A
N15          C16   1.363       .  A
N15        C2965   1.445       .  S
C16          C17   1.381       .  A
C16        C2944   1.488       .  S
C17          C18   1.373       .  A
C17          H20   1.082       .  S
C18          C19   1.381       .  A
C18          H21   1.082       .  S
C19        C2953   1.486       .  S
N22          C26   1.358       .  A
N22          C23   1.360       .  A
N22        C2929   1.447       .  S
C23          C24   1.381       .  A
C23        C2905   1.481       .  S
C24          C25   1.374       .  A
C24          H27   1.082       .  S
C25          C26   1.380       .  A
C25          H28   1.082       .  S
C26        C2920   1.477       .  S
O29         Cu37   2.012   1_545  S
O29          C39   1.279       .  A
O30         Cu37   2.014       .  S
O30          C40   1.278       .  A
O31         Cu37   2.019       .  S
O31          C41   1.278       .  A
O32         Cu37   2.022   1_545  S
O32          C42   1.278       .  A
O33         Cu38   2.016   1_545  S
O33          C42   1.278       .  A
O34         Cu38   2.024       .  S
O34          C41   1.279       .  A
O35         Cu38   2.018       .  S
O35          C40   1.279       .  A
O36         Cu38   2.018   1_545  S
O36          C39   1.279       .  A
Cu37        Cu38   2.372       .  S
C39        C2932   1.496       .  S
C40        C3040   1.483       .  S
C41        C3004   1.480       .  S
C42        C2968   1.478       .  S
N43          C47   1.363       .  A
N43          C44   1.362       .  A
N43        C2893   1.446       .  S
C44          C45   1.380       .  A
C44        C2869   1.486       .  S
C45          C46   1.372       .  A
C45          H48   1.082       .  S
C46          C47   1.386       .  A
C46          H49   1.082       .  S
C47        C2881   1.496       .  S
N50          C54   1.361       .  A
N50          C51   1.360       .  A
N50        C2857   1.450       .  S
C51          C52   1.379       .  A
C51        C2833   1.474       .  S
C52          C53   1.367       .  A
C52          H55   1.082       .  S
C53          C54   1.383       .  A
C53          H56   1.082       .  S
C54        C2845   1.479       .  S
N57          C61   1.357       .  A
N57          C58   1.358       .  A
N57        C2821   1.443       .  S
C58          C59   1.383       .  A
C58        C2800   1.483       .  S
C59          C60   1.377       .  A
C59          H62   1.082       .  S
C60          C61   1.381       .  A
C60          H63   1.082       .  S
C61        C2812   1.478       .  S
N64          C68   1.359       .  A
N64          C65   1.362       .  A
N64        C2788   1.442       .  S
C65          C66   1.381       .  A
C65        C2761   1.487       .  S
C66          C67   1.375       .  A
C66          H69   1.082       .  S
C67          C68   1.382       .  A
C67          H70   1.082       .  S
C68        C2773   1.487       .  S
O71         Cu79   2.009   1_455  S
O71          C81   1.277       .  A
O72         Cu79   2.018       .  S
O72          C82   1.278       .  A
O73         Cu79   2.002       .  S
O73          C83   1.278       .  A
O74         Cu79   2.007   1_455  S
O74          C84   1.277       .  A
O75         Cu80   2.035       .  S
O75          C84   1.281       .  A
O76         Cu80   2.033   1_655  S
O76          C83   1.280       .  A
O77         Cu80   2.024   1_655  S
O77          C82   1.279       .  A
O78         Cu80   2.026       .  S
O78          C81   1.279       .  A
Cu79        Cu80   2.372   1_655  S
C81        C2824   1.476       .  S
C82        C2860   1.480       .  S
C83        C2896   1.494       .  S
C84        C2785   1.488       .  S
N85          C89   1.362       .  A
N85          C86   1.361       .  A
N85        C2752   1.448       .  S
C86          C87   1.381       .  A
C86        C2737   1.482       .  S
C87          C88   1.374       .  A
C87          H90   1.082       .  S
C88          C89   1.381       .  A
C88          H91   1.082       .  S
C89        C2728   1.483       .  S
N92          C96   1.357       .  A
N92          C93   1.358       .  A
N92        C2713   1.443       .  S
C93          C94   1.381       .  A
C93        C2701   1.478       .  S
C94          C95   1.374       .  A
C94          H97   1.082       .  S
C95          C96   1.380       .  A
C95          H98   1.082       .  S
C96        C2689   1.476       .  S
N99         C103   1.357       .  A
N99         C100   1.356       .  A
N99        C2677   1.443       .  S
C100        C101   1.381       .  A
C100       C2665   1.476       .  S
C101        C102   1.376       .  A
C101        H104   1.082       .  S
C102        C103   1.381       .  A
C102        H105   1.082       .  S
C103       C2653   1.480       .  S
N106        C110   1.356       .  A
N106        C107   1.357       .  A
N106       C2644   1.443       .  S
C107        C108   1.382       .  A
C107       C2629   1.477       .  S
C108        C109   1.374       .  A
C108        H111   1.082       .  S
C109        C110   1.381       .  A
C109        H112   1.082       .  S
C110       C2620   1.478       .  S
O113       Cu121   2.029       .  S
O113        C123   1.280       .  A
O114       Cu121   2.025   1_545  S
O114        C124   1.280       .  A
O115       Cu121   2.019   1_545  S
O115        C125   1.279       .  A
O116       Cu121   2.020       .  S
O116        C126   1.279       .  A
O117       Cu122   2.026       .  S
O117        C126   1.280       .  A
O118       Cu122   2.023   1_545  S
O118        C125   1.280       .  A
O119       Cu122   2.020   1_545  S
O119        C124   1.279       .  A
O120       Cu122   2.016       .  S
O120        C123   1.279       .  A
Cu121      Cu122   2.366       .  S
C123       C2749   1.498       .  S
C124       C2641   1.494       .  S
C125       C2680   1.495       .  S
C126       C2716   1.492       .  S
N127        C131   1.359       .  A
N127        C128   1.359       .  A
N127       C2608   1.444       .  S
C128        C129   1.381       .  A
C128       C2596   1.484       .  S
C129        C130   1.376       .  A
C129        H132   1.082       .  S
C130        C131   1.382       .  A
C130        H133   1.082       .  S
C131       C2581   1.484       .  S
N134        C138   1.358       .  A
N134        C135   1.356       .  A
N134       C2569   1.446       .  S
C135        C136   1.381       .  A
C135       C2557   1.475       .  S
C136        C137   1.374       .  A
C136        H139   1.082       .  S
C137        C138   1.381       .  A
C137        H140   1.082       .  S
C138       C2545   1.478       .  S
N141        C145   1.356       .  A
N141        C142   1.359       .  A
N141       C2533   1.442       .  S
C142        C143   1.384       .  A
C142       C2521   1.482       .  S
C143        C144   1.374       .  A
C143        H146   1.082       .  S
C144        C145   1.379       .  A
C144        H147   1.082       .  S
C145       C2512   1.478       .  S
N148        C152   1.357       .  A
N148        C149   1.359       .  A
N148       C2500   1.443       .  S
C149        C150   1.382       .  A
C149       C2485   1.480       .  S
C150        C151   1.374       .  A
C150        H153   1.082       .  S
C151        C152   1.380       .  A
C151        H154   1.082       .  S
C152       C2473   1.478       .  S
O155       Cu163   2.017   1_545  S
O155        C165   1.278       .  A
O156       Cu163   2.021       .  S
O156        C166   1.280       .  A
O157       Cu163   2.010   1_545  S
O157        C167   1.277       .  A
O158       Cu163   2.011       .  S
O158        C168   1.279       .  A
O159       Cu164   2.027       .  S
O159        C168   1.280       .  A
O160       Cu164   2.029   1_545  S
O160        C167   1.281       .  A
O161       Cu164   2.011       .  S
O161        C166   1.278       .  A
O162       Cu164   2.012   1_545  S
O162        C165   1.277       .  A
Cu163      Cu164   2.369       .  S
C165       C2536   1.474       .  S
C166       C2572   1.495       .  S
C167       C2497   1.488       .  S
C168       C2605   1.494       .  S
N169        C173   1.356       .  A
N169        C170   1.356       .  A
N169       C2464   1.442       .  S
C170        C171   1.380       .  A
C170       C2449   1.475       .  S
C171        C172   1.373       .  A
C171        H174   1.082       .  S
C172        C173   1.384       .  A
C172        H175   1.082       .  S
C173       C2437   1.480       .  S
N176        C180   1.357       .  A
N176        C177   1.361       .  A
N176       C2425   1.449       .  S
C177        C178   1.383       .  A
C177       C2401   1.478       .  S
C178        C179   1.370       .  A
C178        H181   1.082       .  S
C179        C180   1.379       .  A
C179        H182   1.082       .  S
C180       C2413   1.473       .  S
N183        C187   1.358       .  A
N183        C184   1.359       .  A
N183       C2389   1.442       .  S
C184        C185   1.382       .  A
C184       C2380   1.485       .  S
C185        C186   1.375       .  A
C185        H188   1.082       .  S
C186        C187   1.381       .  A
C186        H189   1.082       .  S
C187       C2368   1.480       .  S
N190        C194   1.359       .  A
N190        C191   1.370       .  A
N190       C2353   1.445       .  S
C191        C192   1.391       .  A
C191       C2329   1.512       .  S
C192        C193   1.371       .  A
C192        H195   1.081       .  S
C193        C194   1.373       .  A
C193        H196   1.082       .  S
C194       C2341   1.481       .  S
O197       Cu205   2.027       .  S
O197        C207   1.279       .  A
O198       Cu205   2.022   1_554  S
O198        C208   1.279       .  A
O199       Cu205   2.009   1_554  S
O199        C209   1.278       .  A
O200       Cu205   2.008       .  S
O200        C210   1.278       .  A
O201       Cu206   2.033       .  S
O201        C210   1.281       .  A
O202       Cu206   2.026   1_554  S
O202        C209   1.280       .  A
O203       Cu206   2.021   1_554  S
O203        C208   1.279       .  A
O204       Cu206   2.022       .  S
O204        C207   1.278       .  A
Cu205      Cu206   2.370       .  S
C207       C2428   1.481       .  S
C208       C2392   1.486       .  S
C209       C2356   1.491       .  S
C210       C2461   1.493       .  S
N211        C215   1.358       .  A
N211        C212   1.360       .  A
N211       C2320   1.446       .  S
C212        C213   1.382       .  A
C212       C2305   1.481       .  S
C213        C214   1.373       .  A
C213        H216   1.082       .  S
C214        C215   1.380       .  A
C214        H217   1.082       .  S
C215       C2293   1.476       .  S
N218        C222   1.358       .  A
N218        C219   1.360       .  A
N218       C2281   1.446       .  S
C219        C220   1.381       .  A
C219       C2269   1.481       .  S
C220        C221   1.375       .  A
C220        H223   1.082       .  S
C221        C222   1.381       .  A
C221        H224   1.082       .  S
C222       C2257   1.479       .  S
N225        C229   1.358       .  A
N225        C226   1.363       .  A
N225       C2245   1.447       .  S
C226        C227   1.384       .  A
C226       C2233   1.485       .  S
C227        C228   1.372       .  A
C227        H230   1.082       .  S
C228        C229   1.378       .  A
C228        H231   1.082       .  S
C229       C2221   1.477       .  S
N232        C236   1.360       .  A
N232        C233   1.365       .  A
N232       C2209   1.450       .  S
C233        C234   1.386       .  A
C233       C2197   1.491       .  S
C234        C235   1.371       .  A
C234        H237   1.082       .  S
C235        C236   1.378       .  A
C235        H238   1.082       .  S
C236       C2185   1.478       .  S
O239       Cu247   2.011       .  S
O239        C249   1.279       .  A
O240       Cu247   2.016   1_545  S
O240        C250   1.277       .  A
O241       Cu247   2.029       .  S
O241        C251   1.281       .  A
O242       Cu247   2.030   1_545  S
O242        C252   1.281       .  A
O243       Cu248   2.016   1_545  S
O243        C252   1.278       .  A
O244       Cu248   2.026       .  S
O244        C251   1.280       .  A
O245       Cu248   2.038   1_545  S
O245        C250   1.281       .  A
O246       Cu248   2.031       .  S
O246        C249   1.280       .  A
Cu247      Cu248   2.365       .  S
C249       C2284   1.498       .  S
C250       C2248   1.485       .  S
C251       C2317   1.497       .  S
C252       C2212   1.502       .  S
N253        C257   1.358       .  A
N253        C254   1.356       .  A
N253       C2173   1.444       .  S
C254        C255   1.381       .  A
C254       C2149   1.479       .  S
C255        C256   1.376       .  A
C255        H258   1.082       .  S
C256        C257   1.383       .  A
C256        H259   1.082       .  S
C257       C2164   1.481       .  S
N260        C264   1.360       .  A
N260        C261   1.357       .  A
N260       C2137   1.444       .  S
C261        C262   1.380       .  A
C261       C2113   1.478       .  S
C262        C263   1.375       .  A
C262        H265   1.082       .  S
C263        C264   1.382       .  A
C263        H266   1.082       .  S
C264       C2128   1.481       .  S
N267        C271   1.370       .  A
N267        C268   1.357       .  A
N267       C2101   1.445       .  S
C268        C269   1.373       .  A
C268       C2077   1.477       .  S
C269        C270   1.369       .  A
C269        H272   1.082       .  S
C270        C271   1.392       .  A
C270        H273   1.080       .  S
C271       C2089   1.508       .  S
N274        C278   1.365       .  A
N274        C275   1.363       .  A
N274       C2065   1.452       .  S
C275        C276   1.380       .  A
C275       C2041   1.479       .  S
C276        C277   1.367       .  A
C276        H279   1.082       .  S
C277        C278   1.383       .  A
C277        H280   1.082       .  S
C278       C2053   1.485       .  S
O281       Cu289   2.017   1_554  S
O281        C291   1.277       .  A
O282       Cu289   2.010       .  S
O282        C292   1.278       .  A
O283       Cu289   2.035       .  S
O283        C293   1.282       .  A
O284       Cu289   2.030   1_554  S
O284        C294   1.281       .  A
O285       Cu290   2.007   1_554  S
O285        C294   1.278       .  A
O286       Cu290   2.017       .  S
O286        C293   1.278       .  A
O287       Cu290   2.028       .  S
O287        C292   1.280       .  A
O288       Cu290   2.035   1_554  S
O288        C291   1.280       .  A
Cu289      Cu290   2.368       .  S
C291       C2068   1.483       .  S
C292       C2176   1.490       .  S
C293       C2140   1.499       .  S
C294       C2104   1.493       .  S
N295        C299   1.359       .  A
N295        C296   1.357       .  A
N295       C2029   1.446       .  S
C296        C297   1.381       .  A
C296       C2017   1.477       .  S
C297        C298   1.375       .  A
C297        H300   1.082       .  S
C298        C299   1.381       .  A
C298        H301   1.082       .  S
C299       C2008   1.480       .  S
N302        C306   1.358       .  A
N302        C303   1.363       .  A
N302       C1993   1.441       .  S
C303        C304   1.384       .  A
C303       C1969   1.490       .  S
C304        C305   1.374       .  A
C304        H307   1.082       .  S
C305        C306   1.379       .  A
C305        H308   1.082       .  S
C306       C1981   1.482       .  S
N309        C313   1.357       .  A
N309        C310   1.355       .  A
N309       C1960   1.438       .  S
C310        C311   1.382       .  A
C310       C1948   1.483       .  S
C311        C312   1.379       .  A
C311        H314   1.082       .  S
C312        C313   1.382       .  A
C312        H315   1.082       .  S
C313       C1933   1.487       .  S
N316        C320   1.365       .  A
N316        C317   1.370       .  A
N316       C1921   1.448       .  S
C317        C318   1.389       .  A
C317       C1897   1.505       .  S
C318        C319   1.367       .  A
C318        H321   1.082       .  S
C319        C320   1.376       .  A
C319        H322   1.082       .  S
C320       C1909   1.485       .  S
O323       Cu331   2.011       .  S
O323        C333   1.277       .  A
O324       Cu331   2.002   1_554  S
O324        C334   1.278       .  A
O325       Cu331   2.036       .  S
O325        C335   1.282       .  A
O326       Cu331   2.039   1_554  S
O326        C336   1.281       .  A
O327       Cu332   2.005   1_554  S
O327        C336   1.279       .  A
O328       Cu332   2.014       .  S
O328        C335   1.278       .  A
O329       Cu332   2.017   1_554  S
O329        C334   1.279       .  A
O330       Cu332   2.026       .  S
O330        C333   1.279       .  A
Cu331      Cu332   2.367       .  S
C333       C1996   1.481       .  S
C334       C1957   1.487       .  S
C335       C2032   1.498       .  S
C336       C1924   1.500       .  S
N337        C341   1.361       .  A
N337        C338   1.360       .  A
N337       C1885   1.445       .  S
C338        C339   1.382       .  A
C338       C1873   1.484       .  S
C339        C340   1.371       .  A
C339        H342   1.082       .  S
C340        C341   1.382       .  A
C340        H343   1.082       .  S
C341       C1864   1.481       .  S
N344        C348   1.366       .  A
N344        C345   1.358       .  A
N344       C1849   1.444       .  S
C345        C346   1.377       .  A
C345       C1840   1.482       .  S
C346        C347   1.374       .  A
C346        H349   1.082       .  S
C347        C348   1.389       .  A
C347        H350   1.082       .  S
C348       C1825   1.501       .  S
N351        C355   1.361       .  A
N351        C352   1.361       .  A
N351       C1816   1.447       .  S
C352        C353   1.381       .  A
C352       C1801   1.485       .  S
C353        C354   1.374       .  A
C353        H356   1.082       .  S
C354        C355   1.382       .  A
C354        H357   1.082       .  S
C355       C1789   1.482       .  S
N358        C362   1.366       .  A
N358        C359   1.364       .  A
N358       C1777   1.453       .  S
C359        C360   1.379       .  A
C359       C1765   1.479       .  S
C360        C361   1.366       .  A
C360        H363   1.082       .  S
C361        C362   1.384       .  A
C361        H364   1.083       .  S
C362       C1756   1.487       .  S
O365       Cu373   2.027       .  S
O365        C375   1.279       .  A
O366       Cu373   2.034   1_455  S
O366        C376   1.280       .  A
O367       Cu373   1.999       .  S
O367        C377   1.276       .  A
O368       Cu373   2.002   1_455  S
O368        C378   1.278       .  A
O369       Cu374   2.036   1_455  S
O369        C378   1.281       .  A
O370       Cu374   2.026       .  S
O370        C377   1.280       .  A
O371       Cu374   2.028   1_455  S
O371        C376   1.279       .  A
O372       Cu374   2.022       .  S
O372        C375   1.279       .  A
Cu373      Cu374   2.368       .  S
C375       C1888   1.485       .  S
C376       C1780   1.487       .  S
C377       C1852   1.491       .  S
C378       C1813   1.496       .  S
N379        C383   1.357       .  A
N379        C380   1.358       .  A
N379       C1744   1.442       .  S
C380        C381   1.382       .  A
C380       C1729   1.484       .  S
C381        C382   1.376       .  A
C381        H384   1.082       .  S
C382        C383   1.382       .  A
C382        H385   1.082       .  S
C383       C1720   1.480       .  S
N386        C390   1.357       .  A
N386        C387   1.362       .  A
N386       C1705   1.443       .  S
C387        C388   1.385       .  A
C387       C1681   1.489       .  S
C388        C389   1.374       .  A
C388        H391   1.082       .  S
C389        C390   1.378       .  A
C389        H392   1.082       .  S
C390       C1693   1.478       .  S
N393        C397   1.362       .  A
N393        C394   1.358       .  A
N393       C1669   1.447       .  S
C394        C395   1.381       .  A
C394       C1660   1.482       .  S
C395        C396   1.376       .  A
C395        H398   1.082       .  S
C396        C397   1.382       .  A
C396        H399   1.082       .  S
C397       C1645   1.484       .  S
N400        C404   1.358       .  A
N400        C401   1.366       .  A
N400       C1636   1.442       .  S
C401        C402   1.390       .  A
C401       C1609   1.504       .  S
C402        C403   1.372       .  A
C402        H405   1.082       .  S
C403        C404   1.377       .  A
C403        H406   1.082       .  S
C404       C1621   1.483       .  S
O407       Cu415   1.997       .  S
O407        C417   1.276       .  A
O408       Cu415   1.990   1_554  S
O408        C418   1.275       .  A
O409       Cu415   2.027   1_554  S
O409        C419   1.280       .  A
O410       Cu415   2.030       .  S
O410        C420   1.280       .  A
O411       Cu416   2.009       .  S
O411        C420   1.277       .  A
O412       Cu416   2.005   1_554  S
O412        C419   1.278       .  A
O413       Cu416   2.041   1_554  S
O413        C418   1.282       .  A
O414       Cu416   2.037       .  S
O414        C417   1.282       .  A
Cu415      Cu416   2.367       .  S
C417       C1741   1.492       .  S
C418       C1633   1.491       .  S
C419       C1672   1.497       .  S
C420       C1708   1.479       .  S
N421        C425   1.357       .  A
N421        C422   1.357       .  A
N421       C1597   1.449       .  S
C422        C423   1.382       .  A
C422       C1585   1.474       .  S
C423        C424   1.373       .  A
C423        H426   1.082       .  S
C424        C425   1.380       .  A
C424        H427   1.082       .  S
C425       C1576   1.472       .  S
N428        C432   1.358       .  A
N428        C429   1.356       .  A
N428       C1561   1.442       .  S
C429        C430   1.380       .  A
C429       C1552   1.479       .  S
C430        C431   1.377       .  A
C430        H433   1.082       .  S
C431        C432   1.382       .  A
C431        H434   1.082       .  S
C432       C1537   1.481       .  S
N435        C439   1.355       .  A
N435        C436   1.356       .  A
N435       C1525   1.438       .  S
C436        C437   1.382       .  A
C436       C1513   1.480       .  S
C437        C438   1.378       .  A
C437        H440   1.082       .  S
C438        C439   1.381       .  A
C438        H441   1.082       .  S
C439       C1501   1.482       .  S
N442        C446   1.356       .  A
N442        C443   1.359       .  A
N442       C1489   1.446       .  S
C443        C444   1.381       .  A
C443       C1477   1.477       .  S
C444        C445   1.374       .  A
C444        H447   1.082       .  S
C445        C446   1.381       .  A
C445        H448   1.082       .  S
C446       C1468   1.477       .  S
O449       Cu457   2.014       .  S
O449        C459   1.278       .  A
O450       Cu457   2.009   1_455  S
O450        C460   1.277       .  A
O451       Cu457   2.032       .  S
O451        C461   1.281       .  A
O452       Cu457   2.027   1_455  S
O452        C462   1.281       .  A
O453       Cu458   1.999   1_455  S
O453        C462   1.276       .  A
O454       Cu458   2.001       .  S
O454        C461   1.277       .  A
O455       Cu458   2.036   1_455  S
O455        C460   1.282       .  A
O456       Cu458   2.038       .  S
O456        C459   1.282       .  A
Cu457      Cu458   2.364       .  S
C459       C1600   1.500       .  S
C460       C1492   1.500       .  S
C461       C1564   1.493       .  S
C462       C1528   1.487       .  S
N463        C467   1.359       .  A
N463        C464   1.360       .  A
N463       C1453   1.446       .  S
C464        C465   1.381       .  A
C464       C1429   1.480       .  S
C465        C466   1.373       .  A
C465        H468   1.082       .  S
C466        C467   1.381       .  A
C466        H469   1.082       .  S
C467       C1441   1.478       .  S
N470        C474   1.361       .  A
N470        C471   1.366       .  A
N470       C1417   1.442       .  S
C471        C472   1.389       .  A
C471       C1393   1.504       .  S
C472        C473   1.372       .  A
C472        H475   1.082       .  S
C473        C474   1.378       .  A
C473        H476   1.082       .  S
C474       C1405   1.487       .  S
N477        C481   1.360       .  A
N477        C478   1.360       .  A
N477       C1381   1.448       .  S
C478        C479   1.382       .  A
C478       C1360   1.481       .  S
C479        C480   1.373       .  A
C479        H482   1.082       .  S
C480        C481   1.381       .  A
C480        H483   1.082       .  S
C481       C1369   1.480       .  S
N484        C488   1.361       .  A
N484        C485   1.366       .  A
N484       C1345   1.451       .  S
C485        C486   1.385       .  A
C485       C1321   1.487       .  S
C486        C487   1.368       .  A
C486        H489   1.082       .  S
C487        C488   1.377       .  A
C487        H490   1.082       .  S
C488       C1336   1.479       .  S
O491       Cu499   2.029   1_655  S
O491        C501   1.280       .  A
O492       Cu499   2.032       .  S
O492        C502   1.280       .  A
O493       Cu499   2.003   1_655  S
O493        C503   1.278       .  A
O494       Cu499   2.011       .  S
O494        C504   1.279       .  A
O495       Cu500   2.031       .  S
O495        C504   1.280       .  A
O496       Cu500   2.027   1_655  S
O496        C503   1.280       .  A
O497       Cu500   2.021       .  S
O497        C502   1.278       .  A
O498       Cu500   2.016   1_655  S
O498        C501   1.279       .  A
Cu499      Cu500   2.367       .  S
C501       C1456   1.497       .  S
C502       C1348   1.484       .  S
C503       C1420   1.491       .  S
C504       C1384   1.499       .  S
N505        C510   1.352   1_655  A
N505        C509   1.349       .  A
N505        H537   1.040       .  S
N506        C513   1.350       .  A
N506        C514   1.352       .  A
N507        C512   1.351   1_655  A
N507        C511   1.351       .  A
N507        H538   1.041       .  S
N508        C515   1.351       .  A
N508        C516   1.351       .  A
C509        C517   1.387       .  A
C509        C525   1.410       .  A
C510        C526   1.412       .  A
C510        C518   1.387       .  A
C511        C519   1.386       .  A
C511        C528   1.411       .  A
C512        C527   1.412       .  A
C512        C520   1.387       .  A
C513        C525   1.413       .  A
C513        C521   1.386       .  A
C514        C528   1.415       .  A
C514        C522   1.387       .  A
C515        C523   1.386       .  A
C515        C526   1.415       .  A
C516        C524   1.387       .  A
C516        C527   1.416       .  A
C517        C518   1.376   1_655  A
C517        H529   1.083       .  S
C518        H530   1.082       .  S
C519        C520   1.376   1_655  A
C519        H531   1.082       .  S
C520        H532   1.082       .  S
C521        C522   1.380       .  A
C521        H533   1.082       .  S
C522        H534   1.082       .  S
C523        C524   1.380       .  A
C523        H535   1.082       .  S
C524        H536   1.082       .  S
C525       C1573   1.486       .  S
C526       C1504   1.496       .  S
C527       C1357   1.496       .  S
C528       C1432   1.496       .  S
N539        C544   1.354       .  A
N539        C543   1.351       .  A
N539        H571   1.038       .  S
N540        C547   1.353       .  A
N540        C548   1.354       .  A
N541        C546   1.352       .  A
N541        C545   1.354       .  A
N541        H572   1.037       .  S
N542        C549   1.353       .  A
N542        C550   1.352       .  A
C543        C551   1.387       .  A
C543        C559   1.411       .  A
C544        C560   1.415       .  A
C544        C552   1.387       .  A
C545        C553   1.388       .  A
C545        C562   1.415       .  A
C546        C561   1.413       .  A
C546        C554   1.386       .  A
C547        C559   1.418       .  A
C547        C555   1.386       .  A
C548        C562   1.419       .  A
C548        C556   1.386       .  A
C549        C557   1.386       .  A
C549        C560   1.417       .  A
C550        C558   1.386       .  A
C550        C561   1.417       .  A
C551        C552   1.374       .  A
C551        H563   1.083       .  S
C552        H564   1.082       .  S
C553        C554   1.372       .  A
C553        H565   1.081       .  S
C554        H566   1.083       .  S
C555        C556   1.381       .  A
C555        H567   1.082       .  S
C556        H568   1.082       .  S
C557        C558   1.378       .  A
C557        H569   1.082       .  S
C558        H570   1.082       .  S
C559       C1444   1.490       .  S
C560       C1408   1.499       .  S
C561       C2917   1.493       .  S
C562       C2956   1.497       .  S
N573        C578   1.351       .  A
N573        C577   1.352       .  A
N573        H605   1.039       .  S
N574        C581   1.352       .  A
N574        C582   1.353       .  A
N575        C580   1.351       .  A
N575        C579   1.352       .  A
N575        H606   1.040       .  S
N576        C583   1.352       .  A
N576        C584   1.352       .  A
C577        C585   1.387       .  A
C577        C593   1.413       .  A
C578        C594   1.412       .  A
C578        C586   1.387       .  A
C579        C587   1.387       .  A
C579        C596   1.414       .  A
C580        C595   1.411       .  A
C580        C588   1.387       .  A
C581        C593   1.414       .  A
C581        C589   1.385       .  A
C582        C596   1.418       .  A
C582        C590   1.387       .  A
C583        C591   1.386       .  A
C583        C594   1.415       .  A
C584        C592   1.387       .  A
C584        C595   1.416       .  A
C585        C586   1.373       .  A
C585        H597   1.082       .  S
C586        H598   1.083       .  S
C587        C588   1.376       .  A
C587        H599   1.083       .  S
C588        H600   1.082       .  S
C589        C590   1.377       .  A
C589        H601   1.082       .  S
C590        H602   1.082       .  S
C591        C592   1.380       .  A
C591        H603   1.082       .  S
C592        H604   1.082       .  S
C593       C2668   1.490       .  S
C594       C2632   1.489       .  S
C595       C1333   1.488       .  S
C596       C1372   1.499       .  S
N607        C612   1.350       .  A
N607        C611   1.350       .  A
N607        H639   1.040       .  S
N608        C615   1.353       .  A
N608        C616   1.351       .  A
N609        C614   1.352       .  A
N609        C613   1.351       .  A
N609        H640   1.040       .  S
N610        C617   1.352       .  A
N610        C618   1.352       .  A
C611        C619   1.385       .  A
C611        C627   1.409       .  A
C612        C628   1.413       .  A
C612        C620   1.389       .  A
C613        C621   1.388       .  A
C613        C630   1.414       .  A
C614        C629   1.414       .  A
C614        C622   1.386       .  A
C615        C627   1.415       .  A
C615        C623   1.386       .  A
C616        C630   1.414       .  A
C616        C624   1.386       .  A
C617        C625   1.386       .  A
C617        C628   1.416       .  A
C618        C626   1.386       .  A
C618        C629   1.417       .  A
C619        C620   1.378       .  A
C619        H631   1.083       .  S
C620        H632   1.083       .  S
C621        C622   1.377       .  A
C621        H633   1.082       .  S
C622        H634   1.082       .  S
C623        C624   1.378       .  A
C623        H635   1.082       .  S
C624        H636   1.082       .  S
C625        C626   1.377       .  A
C625        H637   1.082       .  S
C626        H638   1.082       .  S
C627       C1549   1.494       .  S
C628       C1588   1.494       .  S
C629       C1657   1.499       .  S
C630       C1624   1.490       .  S
N641        C646   1.352       .  A
N641        C645   1.353       .  A
N641        H673   1.040       .  S
N642        C649   1.351       .  A
N642        C650   1.351       .  A
N643        C648   1.351       .  A
N643        C647   1.352       .  A
N643        H674   1.040       .  S
N644        C651   1.353       .  A
N644        C652   1.354       .  A
C645        C653   1.386       .  A
C645        C661   1.412       .  A
C646        C662   1.413       .  A
C646        C654   1.388       .  A
C647        C655   1.388       .  A
C647        C664   1.414       .  A
C648        C663   1.410       .  A
C648        C656   1.386       .  A
C649        C661   1.415       .  A
C649        C657   1.386       .  A
C650        C664   1.415       .  A
C650        C658   1.386       .  A
C651        C659   1.386       .  A
C651        C662   1.418       .  A
C652        C660   1.386       .  A
C652        C663   1.418       .  A
C653        C654   1.374       .  A
C653        H665   1.082       .  S
C654        H666   1.083       .  S
C655        C656   1.374       .  A
C655        H667   1.083       .  S
C656        H668   1.083       .  S
C657        C658   1.379       .  A
C657        H669   1.082       .  S
C658        H670   1.082       .  S
C659        C660   1.382       .  A
C659        H671   1.082       .  S
C660        H672   1.082       .  S
C661       C1480   1.495       .  S
C662       C1516   1.496       .  S
C663       C1945   1.494       .  S
C664       C1912   1.494       .  S
N675        C680   1.352       .  A
N675        C679   1.352   1_556  A
N675        H707   1.038       .  S
N676        C683   1.351       .  A
N676        C684   1.353       .  A
N677        C682   1.351       .  A
N677        C681   1.353   1_556  A
N677        H708   1.041       .  S
N678        C685   1.353       .  A
N678        C686   1.353       .  A
C679        C687   1.389       .  A
C679        C695   1.415       .  A
C680        C696   1.413       .  A
C680        C688   1.386       .  A
C681        C689   1.386       .  A
C681        C698   1.413       .  A
C682        C697   1.414       .  A
C682        C690   1.387       .  A
C683        C695   1.416       .  A
C683        C691   1.387       .  A
C684        C698   1.416       .  A
C684        C692   1.386       .  A
C685        C693   1.385       .  A
C685        C696   1.415       .  A
C686        C694   1.388       .  A
C686        C697   1.419       .  A
C687        C688   1.373   1_554  A
C687        H699   1.081       .  S
C688        H700   1.083       .  S
C689        C690   1.376   1_554  A
C689        H701   1.083       .  S
C690        H702   1.082       .  S
C691        C692   1.377       .  A
C691        H703   1.082       .  S
C692        H704   1.082       .  S
C693        C694   1.378       .  A
C693        H705   1.082       .  S
C694        H706   1.082       .  S
C695       C2044   1.487       .  S
C696       C2116   1.494       .  S
C697       C1717   1.499       .  S
C698       C1648   1.498       .  S
N709        C714   1.353       .  A
N709        C713   1.351       .  A
N709        H741   1.039       .  S
N710        C717   1.354       .  A
N710        C718   1.355       .  A
N711        C716   1.351       .  A
N711        C715   1.351       .  A
N711        H742   1.040       .  S
N712        C719   1.352       .  A
N712        C720   1.351       .  A
C713        C721   1.389       .  A
C713        C729   1.413       .  A
C714        C730   1.414       .  A
C714        C722   1.386       .  A
C715        C723   1.388       .  A
C715        C732   1.414       .  A
C716        C731   1.409       .  A
C716        C724   1.386       .  A
C717        C729   1.420       .  A
C717        C725   1.386       .  A
C718        C732   1.421       .  A
C718        C726   1.386       .  A
C719        C727   1.387       .  A
C719        C730   1.415       .  A
C720        C728   1.385       .  A
C720        C731   1.412       .  A
C721        C722   1.374       .  A
C721        H733   1.081       .  S
C722        H734   1.083       .  S
C723        C724   1.376       .  A
C723        H735   1.082       .  S
C724        H736   1.083       .  S
C725        C726   1.381       .  A
C725        H737   1.082       .  S
C726        H738   1.082       .  S
C727        C728   1.376       .  A
C727        H739   1.082       .  S
C728        H740   1.082       .  S
C729       C1876   1.490       .  S
C730       C1837   1.496       .  S
C731       C1696   1.487       .  S
C732       C1732   1.502       .  S
N743        C748   1.354       .  A
N743        C747   1.356   1_655  A
N743        H775   1.039   1_655  S
N744        C751   1.350       .  A
N744        C752   1.351       .  A
N745        C750   1.351   1_455  A
N745        C749   1.349       .  A
N745        H776   1.043       .  S
N746        C753   1.348       .  A
N746        C754   1.353       .  A
C747        C755   1.389       .  A
C747        C763   1.421       .  A
C748        C764   1.416       .  A
C748        C756   1.387       .  A
C749        C757   1.385       .  A
C749        C766   1.404       .  A
C750        C765   1.416       .  A
C750        C758   1.389       .  A
C751        C763   1.416       .  A
C751        C759   1.388       .  A
C752        C766   1.412       .  A
C752        C760   1.384       .  A
C753        C761   1.385       .  A
C753        C764   1.412       .  A
C754        C762   1.386       .  A
C754        C765   1.417       .  A
C755        C756   1.369   1_455  A
C755        H767   1.081       .  S
C756        H768   1.082       .  S
C757        C758   1.372   1_455  A
C757        H769   1.081       .  S
C758        H770   1.082       .  S
C759        C760   1.381       .  A
C759        H771   1.081       .  S
C760        H772   1.082       .  S
C761        C762   1.382       .  A
C761        H773   1.082       .  S
C762        H774   1.082       .  S
C763       C1792   1.495       .  S
C764       C1861   1.487       .  S
C765       C1396   1.509       .  S
C766       C1324   1.488       .  S
N777        C782   1.355       .  A
N777        C781   1.352       .  A
N777        H809   1.036       .  S
N778        C785   1.351       .  A
N778        C786   1.354       .  A
N779        C784   1.349       .  A
N779        C783   1.352       .  A
N779        H810   1.037       .  S
N780        C787   1.353       .  A
N780        C788   1.354       .  A
C781        C789   1.388       .  A
C781        C797   1.415       .  A
C782        C798   1.416       .  A
C782        C790   1.386       .  A
C783        C791   1.386       .  A
C783        C800   1.409       .  A
C784        C799   1.410       .  A
C784        C792   1.387       .  A
C785        C797   1.417       .  A
C785        C793   1.387       .  A
C786        C800   1.416       .  A
C786        C794   1.385       .  A
C787        C795   1.386       .  A
C787        C798   1.419       .  A
C788        C796   1.386       .  A
C788        C799   1.417       .  A
C789        C790   1.374       .  A
C789        H801   1.082       .  S
C790        H802   1.082       .  S
C791        C792   1.375       .  A
C791        H803   1.082       .  S
C792        H804   1.083       .  S
C793        C794   1.379       .  A
C793        H805   1.082       .  S
C794        H806   1.082       .  S
C795        C796   1.378       .  A
C795        H807   1.082       .  S
C796        H808   1.082       .  S
C797       C1768   1.488       .  S
C798       C1804   1.501       .  S
C799       C2020   1.492       .  S
C800       C1984   1.493       .  S
N811        C816   1.349   1_556  A
N811        C815   1.348       .  A
N811        H843   1.040       .  S
N812        C819   1.354       .  A
N812        C820   1.352       .  A
N813        C818   1.355   1_556  A
N813        C817   1.352       .  A
N813        H844   1.041       .  S
N814        C821   1.351       .  A
N814        C822   1.351       .  A
C815        C823   1.387       .  A
C815        C831   1.407       .  A
C816        C832   1.409       .  A
C816        C824   1.387   1_554  A
C817        C825   1.388       .  A
C817        C834   1.417       .  A
C818        C833   1.415       .  A
C818        C826   1.385   1_554  A
C819        C831   1.417       .  A
C819        C827   1.385       .  A
C820        C834   1.419       .  A
C820        C828   1.387       .  A
C821        C829   1.386       .  A
C821        C832   1.413       .  A
C822        C830   1.386       .  A
C822        C833   1.413       .  A
C823        C824   1.375       .  A
C823        H835   1.083       .  S
C824        H836   1.083   1_556  S
C825        C826   1.377       .  A
C825        H837   1.083       .  S
C826        H838   1.082   1_556  S
C827        C828   1.381       .  A
C827        H839   1.082       .  S
C828        H840   1.082       .  S
C829        C830   1.375       .  A
C829        H841   1.082       .  S
C830        H842   1.082       .  S
C831       C2152   1.491       .  S
C832       C2080   1.486       .  S
C833       C1936   1.497       .  S
C834       C2005   1.495       .  S
N845        C850   1.354       .  A
N845        C849   1.354       .  A
N845        H877   1.043       .  S
N846        C853   1.355       .  A
N846        C854   1.355       .  A
N847        C852   1.355       .  A
N847        C851   1.354       .  A
N847        H878   1.041       .  S
N848        C855   1.350       .  A
N848        C856   1.351       .  A
C849        C857   1.386       .  A
C849        C865   1.413       .  A
C850        C866   1.408       .  A
C850        C858   1.386       .  A
C851        C859   1.386       .  A
C851        C868   1.412       .  A
C852        C867   1.418       .  A
C852        C860   1.388       .  A
C853        C865   1.425       .  A
C853        C861   1.390       .  A
C854        C868   1.415       .  A
C854        C862   1.382       .  A
C855        C863   1.384       .  A
C855        C866   1.410       .  A
C856        C864   1.388       .  A
C856        C867   1.418       .  A
C857        C858   1.371       .  A
C857        H869   1.082       .  S
C858        H870   1.081       .  S
C859        C860   1.372       .  A
C859        H871   1.082       .  S
C860        H872   1.082       .  S
C861        C862   1.374       .  A
C861        H873   1.081       .  S
C862        H874   1.082       .  S
C863        C864   1.377       .  A
C863        H875   1.082       .  S
C864        H876   1.081       .  S
C865       C2200   1.536       .  S
C866       C2236   1.489       .  S
C867       C2161   1.499       .  S
C868       C2125   1.498       .  S
N879        C884   1.354       .  A
N879        C883   1.354       .  A
N879        H911   1.038       .  S
N880        C887   1.349       .  A
N880        C888   1.352       .  A
N881        C886   1.351       .  A
N881        C885   1.352       .  A
N881        H912   1.043       .  S
N882        C889   1.350       .  A
N882        C890   1.351       .  A
C883        C891   1.387       .  A
C883        C899   1.415       .  A
C884        C900   1.417       .  A
C884        C892   1.389       .  A
C885        C893   1.388       .  A
C885        C902   1.415       .  A
C886        C901   1.407       .  A
C886        C894   1.386       .  A
C887        C899   1.412       .  A
C887        C895   1.384       .  A
C888        C902   1.418       .  A
C888        C896   1.387       .  A
C889        C897   1.387       .  A
C889        C900   1.414       .  A
C890        C898   1.385       .  A
C890        C901   1.411       .  A
C891        C892   1.368       .  A
C891        H903   1.082       .  S
C892        H904   1.082       .  S
C893        C894   1.370       .  A
C893        H905   1.082       .  S
C894        H906   1.081       .  S
C895        C896   1.379       .  A
C895        H907   1.082       .  S
C896        H908   1.082       .  S
C897        C898   1.378       .  A
C897        H909   1.082       .  S
C898        H910   1.082       .  S
C899       C2524   1.487       .  S
C900       C2488   1.488       .  S
C901       C2056   1.486       .  S
C902       C2092   1.505       .  S
N913        C918   1.351       .  A
N913        C917   1.350       .  A
N913        H945   1.039       .  S
N914        C921   1.352       .  A
N914        C922   1.352       .  A
N915        C920   1.350       .  A
N915        C919   1.349       .  A
N915        H946   1.039       .  S
N916        C923   1.351       .  A
N916        C924   1.351       .  A
C917        C925   1.387       .  A
C917        C933   1.409       .  A
C918        C934   1.412   1_565  A
C918        C926   1.387       .  A
C919        C927   1.388       .  A
C919        C936   1.411       .  A
C920        C935   1.407   1_565  A
C920        C928   1.385       .  A
C921        C933   1.415       .  A
C921        C929   1.386       .  A
C922        C936   1.416       .  A
C922        C930   1.386       .  A
C923        C931   1.387       .  A
C923        C934   1.415       .  A
C924        C932   1.385       .  A
C924        C935   1.412       .  A
C925        C926   1.376       .  A
C925        H937   1.082       .  S
C926        H938   1.082   1_565  S
C927        C928   1.374       .  A
C927        H939   1.083       .  S
C928        H940   1.083   1_565  S
C929        C930   1.382       .  A
C929        H941   1.082       .  S
C930        H942   1.082       .  S
C931        C932   1.377       .  A
C931        H943   1.082       .  S
C932        H944   1.082       .  S
C933       C2692   1.487       .  S
C934       C2617   1.492       .  S
C935       C2224   1.486       .  S
C936       C2296   1.489       .  S
N947        C952   1.349       .  A
N947        C951   1.349       .  A
N947        H979   1.039       .  S
N948        C955   1.351       .  A
N948        C956   1.351       .  A
N949        C954   1.351       .  A
N949        C953   1.351       .  A
N949        H980   1.040       .  S
N950        C957   1.352       .  A
N950        C958   1.353       .  A
C951        C959   1.386       .  A
C951        C967   1.407       .  A
C952        C968   1.411       .  A
C952        C960   1.388       .  A
C953        C961   1.386       .  A
C953        C970   1.411       .  A
C954        C969   1.412       .  A
C954        C962   1.387       .  A
C955        C967   1.412       .  A
C955        C963   1.385       .  A
C956        C970   1.415       .  A
C956        C964   1.387       .  A
C957        C965   1.386       .  A
C957        C968   1.418       .  A
C958        C966   1.386       .  A
C958        C969   1.417       .  A
C959        C960   1.375       .  A
C959        H971   1.082       .  S
C960        H972   1.083       .  S
C961        C962   1.376       .  A
C961        H973   1.082       .  S
C962        H974   1.082       .  S
C963        C964   1.377       .  A
C963        H975   1.082       .  S
C964        H976   1.082       .  S
C965        C966   1.380       .  A
C965        H977   1.082       .  S
C966        H978   1.082       .  S
C967       C2416   1.483       .  S
C968       C2452   1.492       .  S
C969       C2308   1.497       .  S
C970       C2272   1.494       .  S
N981        C986   1.355   1_556  A
N981        C985   1.353       .  A
N981       H1013   1.039       .  S
N982        C989   1.350       .  A
N982        C990   1.354       .  A
N983        C988   1.352   1_556  A
N983        C987   1.354       .  A
N983       H1014   1.041       .  S
N984        C991   1.351       .  A
N984        C992   1.352       .  A
C985        C993   1.388       .  A
C985       C1001   1.416       .  A
C986       C1002   1.416       .  A
C986        C994   1.387       .  A
C987        C995   1.386       .  A
C987       C1004   1.411       .  A
C988       C1003   1.418       .  A
C988        C996   1.388       .  A
C989       C1001   1.415       .  A
C989        C997   1.388       .  A
C990       C1004   1.413       .  A
C990        C998   1.384       .  A
C991        C999   1.384       .  A
C991       C1002   1.412       .  A
C992       C1000   1.387       .  A
C992       C1003   1.418       .  A
C993        C994   1.371   1_556  A
C993       H1005   1.082       .  S
C994       H1006   1.082       .  S
C995        C996   1.370   1_556  A
C995       H1007   1.081       .  S
C996       H1008   1.082       .  S
C997        C998   1.377       .  A
C997       H1009   1.082       .  S
C998       H1010   1.082       .  S
C999       C1000   1.378       .  A
C999       H1011   1.082       .  S
C1000      H1012   1.082       .  S
C1001      C2440   1.484       .  S
C1002      C2365   1.492       .  S
C1003      C1900   1.504       .  S
C1004      C1972   1.494       .  S
N1015      C1020   1.351       .  A
N1015      C1019   1.352       .  A
N1015      H1047   1.040       .  S
N1016      C1023   1.352       .  A
N1016      C1024   1.351       .  A
N1017      C1022   1.352       .  A
N1017      C1021   1.351       .  A
N1017      H1048   1.040       .  S
N1018      C1025   1.354       .  A
N1018      C1026   1.354       .  A
C1019      C1027   1.387       .  A
C1019      C1035   1.412       .  A
C1020      C1036   1.412       .  A
C1020      C1028   1.388       .  A
C1021      C1029   1.386       .  A
C1021      C1038   1.409       .  A
C1022      C1037   1.414       .  A
C1022      C1030   1.388       .  A
C1023      C1035   1.414       .  A
C1023      C1031   1.386       .  A
C1024      C1038   1.414       .  A
C1024      C1032   1.386       .  A
C1025      C1033   1.385       .  A
C1025      C1036   1.418       .  A
C1026      C1034   1.386       .  A
C1026      C1037   1.420       .  A
C1027      C1028   1.373       .  A
C1027      H1039   1.083       .  S
C1028      H1040   1.082       .  S
C1029      C1030   1.375       .  A
C1029      H1041   1.083       .  S
C1030      H1042   1.083       .  S
C1031      C1032   1.379       .  A
C1031      H1043   1.082       .  S
C1032      H1044   1.082       .  S
C1033      C1034   1.381       .  A
C1033      H1045   1.082       .  S
C1034      H1046   1.082       .  S
C1035      C2344   1.491       .  S
C1036      C2377   1.491       .  S
C1037      C2593   1.498       .  S
C1038      C2560   1.486       .  S
N1049      C1054   1.352   1_565  A
N1049      C1053   1.351       .  A
N1049      H1081   1.041       .  S
N1050      C1057   1.354       .  A
N1050      C1058   1.354       .  A
N1051      C1056   1.351   1_565  A
N1051      C1055   1.351       .  A
N1051      H1082   1.040       .  S
N1052      C1059   1.351       .  A
N1052      C1060   1.350       .  A
C1053      C1061   1.388       .  A
C1053      C1069   1.414       .  A
C1054      C1070   1.412       .  A
C1054      C1062   1.386   1_545  A
C1055      C1063   1.388       .  A
C1055      C1072   1.415       .  A
C1056      C1071   1.410       .  A
C1056      C1064   1.386   1_545  A
C1057      C1069   1.420       .  A
C1057      C1065   1.386       .  A
C1058      C1072   1.419       .  A
C1058      C1066   1.386       .  A
C1059      C1067   1.387       .  A
C1059      C1070   1.414       .  A
C1060      C1068   1.386       .  A
C1060      C1071   1.411       .  A
C1061      C1062   1.377       .  A
C1061      H1073   1.083       .  S
C1062      H1074   1.082   1_565  S
C1063      C1064   1.378       .  A
C1063      H1075   1.082       .  S
C1064      H1076   1.082   1_565  S
C1065      C1066   1.379       .  A
C1065      H1077   1.082       .  S
C1066      H1078   1.082       .  S
C1067      C1068   1.377       .  A
C1067      H1079   1.082       .  S
C1068      H1080   1.082       .  S
C1069      C2725   1.501       .  S
C1070      C2656   1.495       .  S
C1071      C2509   1.485       .  S
C1072      C2584   1.501       .  S
N1083      C1088   1.351       .  A
N1083      C1087   1.352       .  A
N1083      H1115   1.038       .  S
N1084      C1091   1.353       .  A
N1084      C1092   1.351       .  A
N1085      C1090   1.354       .  A
N1085      C1089   1.353       .  A
N1085      H1116   1.034       .  S
N1086      C1093   1.354       .  A
N1086      C1094   1.354       .  A
C1087      C1095   1.386       .  A
C1087      C1103   1.410       .  A
C1088      C1104   1.412       .  A
C1088      C1096   1.387       .  A
C1089      C1097   1.388       .  A
C1089      C1106   1.416       .  A
C1090      C1105   1.416       .  A
C1090      C1098   1.387       .  A
C1091      C1103   1.415       .  A
C1091      C1099   1.385       .  A
C1092      C1106   1.416       .  A
C1092      C1100   1.387       .  A
C1093      C1101   1.387       .  A
C1093      C1104   1.421       .  A
C1094      C1102   1.385       .  A
C1094      C1105   1.418       .  A
C1095      C1096   1.375       .  A
C1095      H1107   1.083       .  S
C1096      H1108   1.082       .  S
C1097      C1098   1.375       .  A
C1097      H1109   1.082       .  S
C1098      H1110   1.083       .  S
C1099      C1100   1.378       .  A
C1099      H1111   1.082       .  S
C1100      H1112   1.082       .  S
C1101      C1102   1.379       .  A
C1101      H1113   1.082       .  S
C1102      H1114   1.082       .  S
C1103      C2740   1.496       .  S
C1104      C2704   1.499       .  S
C1105      C2776   1.495       .  S
C1106      C2809   1.487       .  S
N1117      C1122   1.350       .  A
N1117      C1121   1.351   1_655  A
N1117      H1149   1.041       .  S
N1118      C1125   1.351       .  A
N1118      C1126   1.351       .  A
N1119      C1124   1.350       .  A
N1119      C1123   1.351   1_655  A
N1119      H1150   1.040       .  S
N1120      C1127   1.353       .  A
N1120      C1128   1.353       .  A
C1121      C1129   1.386       .  A
C1121      C1137   1.408       .  A
C1122      C1138   1.414       .  A
C1122      C1130   1.388       .  A
C1123      C1131   1.387       .  A
C1123      C1140   1.411       .  A
C1124      C1139   1.412       .  A
C1124      C1132   1.387       .  A
C1125      C1137   1.413       .  A
C1125      C1133   1.385       .  A
C1126      C1140   1.414       .  A
C1126      C1134   1.387       .  A
C1127      C1135   1.387       .  A
C1127      C1138   1.419       .  A
C1128      C1136   1.385       .  A
C1128      C1139   1.417       .  A
C1129      C1130   1.377   1_455  A
C1129      H1141   1.082       .  S
C1130      H1142   1.082       .  S
C1131      C1132   1.376   1_455  A
C1131      H1143   1.083       .  S
C1132      H1144   1.083       .  S
C1133      C1134   1.378       .  A
C1133      H1145   1.082       .  S
C1134      H1146   1.082       .  S
C1135      C1136   1.380       .  A
C1135      H1147   1.082       .  S
C1136      H1148   1.082       .  S
C1137      C2797   1.489       .  S
C1138      C2872   1.500       .  S
C1139      C1540   1.494       .  S
C1140      C1465   1.491       .  S
N1151      C1156   1.351       .  A
N1151      C1155   1.356       .  A
N1151      H1183   1.037       .  S
N1152      C1159   1.347       .  A
N1152      C1160   1.347       .  A
N1153      C1158   1.352       .  A
N1153      C1157   1.353       .  A
N1153      H1184   1.044       .  S
N1154      C1161   1.353       .  A
N1154      C1162   1.357       .  A
C1155      C1163   1.386       .  A
C1155      C1171   1.415       .  A
C1156      C1172   1.414       .  A
C1156      C1164   1.388       .  A
C1157      C1165   1.387       .  A
C1157      C1174   1.407       .  A
C1158      C1173   1.411       .  A
C1158      C1166   1.386       .  A
C1159      C1171   1.411       .  A
C1159      C1167   1.386       .  A
C1160      C1174   1.407       .  A
C1160      C1168   1.386       .  A
C1161      C1169   1.383       .  A
C1161      C1172   1.416       .  A
C1162      C1170   1.389       .  A
C1162      C1173   1.422       .  A
C1163      C1164   1.373       .  A
C1163      H1175   1.082       .  S
C1164      H1176   1.083       .  S
C1165      C1166   1.368       .  A
C1165      H1177   1.081       .  S
C1166      H1178   1.082       .  S
C1167      C1168   1.377       .  A
C1167      H1179   1.082       .  S
C1168      H1180   1.082       .  S
C1169      C1170   1.371       .  A
C1169      H1181   1.082       .  S
C1170      H1182   1.081       .  S
C1171      C2992   1.488       .  S
C1172      C3028   1.488       .  S
C1173      C2884   1.533       .  S
C1174      C2848   1.480       .  S
N1185      C1190   1.350   1_565  A
N1185      C1189   1.351       .  A
N1185      H1217   1.041       .  S
N1186      C1193   1.351       .  A
N1186      C1194   1.351       .  A
N1187      C1192   1.350   1_565  A
N1187      C1191   1.351       .  A
N1187      H1218   1.040       .  S
N1188      C1195   1.352       .  A
N1188      C1196   1.352       .  A
C1189      C1197   1.386       .  A
C1189      C1205   1.412       .  A
C1190      C1206   1.410       .  A
C1190      C1198   1.387       .  A
C1191      C1199   1.388       .  A
C1191      C1208   1.412       .  A
C1192      C1207   1.410       .  A
C1192      C1200   1.386       .  A
C1193      C1205   1.415       .  A
C1193      C1201   1.386       .  A
C1194      C1208   1.416       .  A
C1194      C1202   1.387       .  A
C1195      C1203   1.386       .  A
C1195      C1206   1.417       .  A
C1196      C1204   1.386       .  A
C1196      C1207   1.416       .  A
C1197      C1198   1.377   1_565  A
C1197      H1209   1.082       .  S
C1198      H1210   1.081       .  S
C1199      C1200   1.377   1_565  A
C1199      H1211   1.083       .  S
C1200      H1212   1.083       .  S
C1201      C1202   1.378       .  A
C1201      H1213   1.082       .  S
C1202      H1214   1.082       .  S
C1203      C1204   1.381       .  A
C1203      H1215   1.082       .  S
C1204      H1216   1.082       .  S
C1205      C3016   1.496       .  S
C1206      C2941   1.492       .  S
C1207      C2476   1.490       .  S
C1208      C2548   1.495       .  S
N1219      C1224   1.349       .  A
N1219      C1223   1.355   1_655  A
N1219      H1251   1.040       .  S
N1220      C1227   1.353       .  A
N1220      C1228   1.348       .  A
N1221      C1226   1.357       .  A
N1221      C1225   1.355   1_655  A
N1221      H1252   1.043       .  S
N1222      C1229   1.353       .  A
N1222      C1230   1.356       .  A
C1223      C1231   1.387       .  A
C1223      C1239   1.415       .  A
C1224      C1240   1.405       .  A
C1224      C1232   1.386       .  A
C1225      C1233   1.387       .  A
C1225      C1242   1.412       .  A
C1226      C1241   1.416       .  A
C1226      C1234   1.386       .  A
C1227      C1239   1.419       .  A
C1227      C1235   1.386       .  A
C1228      C1242   1.414       .  A
C1228      C1236   1.387       .  A
C1229      C1237   1.382       .  A
C1229      C1240   1.413       .  A
C1230      C1238   1.389       .  A
C1230      C1241   1.420       .  A
C1231      C1232   1.371   1_455  A
C1231      H1243   1.083       .  S
C1232      H1244   1.082       .  S
C1233      C1234   1.366   1_455  A
C1233      H1245   1.081       .  S
C1234      H1246   1.082       .  S
C1235      C1236   1.380       .  A
C1235      H1247   1.082       .  S
C1236      H1248   1.082       .  S
C1237      C1238   1.372       .  A
C1237      H1249   1.082       .  S
C1238      H1250   1.080       .  S
C1239      C2764   1.504       .  S
C1240      C2836   1.482       .  S
C1241      C1828   1.534       .  S
C1242      C1753   1.487       .  S
N1253      C1258   1.352   1_565  A
N1253      C1257   1.352       .  A
N1253      H1285   1.040       .  S
N1254      C1261   1.353       .  A
N1254      C1262   1.352       .  A
N1255      C1260   1.352   1_565  A
N1255      C1259   1.351       .  A
N1255      H1286   1.040       .  S
N1256      C1263   1.351       .  A
N1256      C1264   1.352       .  A
C1257      C1265   1.388       .  A
C1257      C1273   1.414       .  A
C1258      C1274   1.412       .  A
C1258      C1266   1.386       .  A
C1259      C1267   1.387       .  A
C1259      C1276   1.410       .  A
C1260      C1275   1.414       .  A
C1260      C1268   1.387   1_545  A
C1261      C1273   1.418       .  A
C1261      C1269   1.387       .  A
C1262      C1276   1.416       .  A
C1262      C1270   1.386       .  A
C1263      C1271   1.385       .  A
C1263      C1274   1.413       .  A
C1264      C1272   1.387       .  A
C1264      C1275   1.417       .  A
C1265      C1266   1.375   1_565  A
C1265      H1277   1.083       .  S
C1266      H1278   1.083       .  S
C1267      C1268   1.375       .  A
C1267      H1279   1.082       .  S
C1268      H1280   1.082   1_565  S
C1269      C1270   1.381       .  A
C1269      H1281   1.082       .  S
C1270      H1282   1.082       .  S
C1271      C1272   1.377       .  A
C1271      H1283   1.082       .  S
C1272      H1284   1.082       .  S
C1273      C2260   1.498       .  S
C1274      C2188   1.491       .  S
C1275      C2908   1.498       .  S
C1276      C2980   1.489       .  S
N1287      C1292   1.351       .  A
N1287      C1291   1.352   1_556  A
N1287      H1319   1.043       .  S
N1288      C1295   1.350       .  A
N1288      C1296   1.348       .  A
N1289      C1294   1.354       .  A
N1289      C1293   1.351   1_556  A
N1289      H1320   1.043       .  S
N1290      C1297   1.347       .  A
N1290      C1298   1.350       .  A
C1291      C1299   1.388       .  A
C1291      C1307   1.415       .  A
C1292      C1308   1.409       .  A
C1292      C1300   1.386       .  A
C1293      C1301   1.391   1_554  A
C1293      C1310   1.420       .  A
C1294      C1309   1.408       .  A
C1294      C1302   1.383       .  A
C1295      C1307   1.416       .  A
C1295      C1303   1.387       .  A
C1296      C1310   1.414       .  A
C1296      C1304   1.387       .  A
C1297      C1305   1.387       .  A
C1297      C1308   1.410       .  A
C1298      C1306   1.385       .  A
C1298      C1309   1.409       .  A
C1299      C1300   1.371   1_554  A
C1299      H1311   1.082       .  S
C1300      H1312   1.082       .  S
C1301      C1302   1.371       .  A
C1301      H1313   1.082   1_556  S
C1302      H1314   1.082       .  S
C1303      C1304   1.385       .  A
C1303      H1315   1.082       .  S
C1304      H1316   1.082       .  S
C1305      C1306   1.381       .  A
C1305      H1317   1.082       .  S
C1306      H1318   1.082       .  S
C1307      C2332   1.505       .  S
C1308      C2404   1.481       .  S
C1309      C1684   1.490       .  S
C1310      C1612   1.503       .  S
C1321      C1322   1.403       .  A
C1321      C1326   1.417       .  A
C1322      C1323   1.406       .  A
C1322      H1327   1.084       .  S
C1323      C1324   1.413       .  A
C1323      C1330   1.443       .  S
C1324      C1325   1.398       .  A
C1325      C1326   1.399       .  A
C1325      H1328   1.085       .  S
C1326      C1329   1.445       .  S
C1329      N1331   1.157       .  T
C1330      N1332   1.157       .  T
C1333      C1334   1.404       .  A
C1333      C1338   1.410       .  A
C1334      C1335   1.405       .  A
C1334      H1339   1.084       .  S
C1335      C1336   1.411       .  A
C1335      C1342   1.443       .  S
C1336      C1337   1.401       .  A
C1337      C1338   1.398       .  A
C1337      H1340   1.085       .  S
C1338      C1341   1.444       .  S
C1341      N1343   1.157       .  T
C1342      N1344   1.157       .  T
C1345      C1346   1.407       .  A
C1345      C1350   1.413       .  A
C1346      C1347   1.403       .  A
C1346      H1351   1.084       .  S
C1347      C1348   1.409       .  A
C1347      C1354   1.444       .  S
C1348      C1349   1.406       .  A
C1349      C1350   1.409       .  A
C1349      H1352   1.085       .  S
C1350      C1353   1.441       .  S
C1353      N1355   1.157       .  T
C1354      N1356   1.157       .  T
C1357      C1358   1.407       .  A
C1357      C1362   1.411       .  A
C1358      C1359   1.401       .  A
C1358      H1363   1.085       .  S
C1359      C1360   1.409       .  A
C1359      C1366   1.443       .  S
C1360      C1361   1.405       .  A
C1361      C1362   1.402       .  A
C1361      H1364   1.085       .  S
C1362      C1365   1.443       .  S
C1365      N1367   1.157       .  T
C1366      N1368   1.157       .  T
C1369      C1370   1.399       .  A
C1369      C1374   1.412       .  A
C1370      C1371   1.401       .  A
C1370      H1375   1.085       .  S
C1371      C1372   1.418       .  A
C1371      C1378   1.444       .  S
C1372      C1373   1.404       .  A
C1373      C1374   1.401       .  A
C1373      H1376   1.084       .  S
C1374      C1377   1.444       .  S
C1377      N1379   1.157       .  T
C1378      N1380   1.157       .  T
C1381      C1382   1.404       .  A
C1381      C1386   1.410       .  A
C1382      C1383   1.408       .  A
C1382      H1387   1.084       .  S
C1383      C1384   1.419       .  A
C1383      C1390   1.443       .  S
C1384      C1385   1.407       .  A
C1385      C1386   1.400       .  A
C1385      H1388   1.084       .  S
C1386      C1389   1.441       .  S
C1389      N1391   1.157       .  T
C1390      N1392   1.157       .  T
C1393      C1394   1.413       .  A
C1393      C1398   1.415       .  A
C1394      C1395   1.402       .  A
C1394      H1399   1.084       .  S
C1395      C1396   1.412       .  A
C1395      C1402   1.443       .  S
C1396      C1397   1.410       .  A
C1397      C1398   1.403       .  A
C1397      H1400   1.086       .  S
C1398      C1401   1.441       .  S
C1401      N1403   1.157       .  T
C1402      N1404   1.157       .  T
C1405      C1406   1.402       .  A
C1405      C1410   1.414       .  A
C1406      C1407   1.401       .  A
C1406      H1411   1.085       .  S
C1407      C1408   1.415       .  A
C1407      C1414   1.443       .  S
C1408      C1409   1.404       .  A
C1409      C1410   1.403       .  A
C1409      H1412   1.085       .  S
C1410      C1413   1.443       .  S
C1413      N1415   1.157       .  T
C1414      N1416   1.157       .  T
C1417      C1418   1.402       .  A
C1417      C1422   1.411       .  A
C1418      C1419   1.408       .  A
C1418      H1423   1.084       .  S
C1419      C1420   1.418       .  A
C1419      C1426   1.443       .  S
C1420      C1421   1.405       .  A
C1421      C1422   1.397       .  A
C1421      H1424   1.085       .  S
C1422      C1425   1.443       .  S
C1425      N1427   1.157       .  T
C1426      N1428   1.157       .  T
C1429      C1430   1.399       .  A
C1429      C1434   1.414       .  A
C1430      C1431   1.400       .  A
C1430      H1435   1.085       .  S
C1431      C1432   1.417       .  A
C1431      C1438   1.445       .  S
C1432      C1433   1.403       .  A
C1433      C1434   1.402       .  A
C1433      H1436   1.085       .  S
C1434      C1437   1.444       .  S
C1437      N1439   1.157       .  T
C1438      N1440   1.157       .  T
C1441      C1442   1.401       .  A
C1441      C1446   1.412       .  A
C1442      C1443   1.398       .  A
C1442      H1447   1.085       .  S
C1443      C1444   1.412       .  A
C1443      C1450   1.444       .  S
C1444      C1445   1.403       .  A
C1445      C1446   1.406       .  A
C1445      H1448   1.084       .  S
C1446      C1449   1.442       .  S
C1449      N1451   1.157       .  T
C1450      N1452   1.157       .  T
C1453      C1454   1.402       .  A
C1453      C1458   1.408       .  A
C1454      C1455   1.407       .  A
C1454      H1459   1.082       .  S
C1455      C1456   1.418       .  A
C1455      C1462   1.443       .  S
C1456      C1457   1.409       .  A
C1457      C1458   1.403       .  A
C1457      H1460   1.084       .  S
C1458      C1461   1.441       .  S
C1461      N1463   1.157       .  T
C1462      N1464   1.157       .  T
C1465      C1466   1.403       .  A
C1465      C1470   1.415       .  A
C1466      C1467   1.401       .  A
C1466      H1471   1.084       .  S
C1467      C1468   1.410       .  A
C1467      C1474   1.443       .  S
C1468      C1469   1.399       .  A
C1469      C1470   1.400       .  A
C1469      H1472   1.085       .  S
C1470      C1473   1.445       .  S
C1473      N1475   1.157       .  T
C1474      N1476   1.157       .  T
C1477      C1478   1.402       .  A
C1477      C1482   1.408       .  A
C1478      C1479   1.401       .  A
C1478      H1483   1.084       .  S
C1479      C1480   1.411       .  A
C1479      C1486   1.443       .  S
C1480      C1481   1.407       .  A
C1481      C1482   1.402       .  A
C1481      H1484   1.085       .  S
C1482      C1485   1.444       .  S
C1485      N1487   1.157       .  T
C1486      N1488   1.157       .  T
C1489      C1490   1.401       .  A
C1489      C1494   1.409       .  A
C1490      C1491   1.403       .  A
C1490      H1495   1.084       .  S
C1491      C1492   1.422       .  A
C1491      C1498   1.444       .  S
C1492      C1493   1.409       .  A
C1493      C1494   1.405       .  A
C1493      H1496   1.084       .  S
C1494      C1497   1.441       .  S
C1497      N1499   1.157       .  T
C1498      N1500   1.157       .  T
C1501      C1502   1.403       .  A
C1501      C1506   1.409       .  A
C1502      C1503   1.403       .  A
C1502      H1507   1.084       .  S
C1503      C1504   1.411       .  A
C1503      C1510   1.443       .  S
C1504      C1505   1.407       .  A
C1505      C1506   1.403       .  A
C1505      H1508   1.085       .  S
C1506      C1509   1.443       .  S
C1509      N1511   1.157       .  T
C1510      N1512   1.157       .  T
C1513      C1514   1.400       .  A
C1513      C1518   1.411       .  A
C1514      C1515   1.401       .  A
C1514      H1519   1.085       .  S
C1515      C1516   1.415       .  A
C1515      C1522   1.444       .  S
C1516      C1517   1.404       .  A
C1517      C1518   1.406       .  A
C1517      H1520   1.084       .  S
C1518      C1521   1.443       .  S
C1521      N1523   1.157       .  T
C1522      N1524   1.157       .  T
C1525      C1526   1.399       .  A
C1525      C1530   1.406       .  A
C1526      C1527   1.402       .  A
C1526      H1531   1.084       .  S
C1527      C1528   1.418       .  A
C1527      C1534   1.444       .  S
C1528      C1529   1.406       .  A
C1529      C1530   1.402       .  A
C1529      H1532   1.084       .  S
C1530      C1533   1.441       .  S
C1533      N1535   1.157       .  T
C1534      N1536   1.157       .  T
C1537      C1538   1.404       .  A
C1537      C1542   1.410       .  A
C1538      C1539   1.404       .  A
C1538      H1543   1.084       .  S
C1539      C1540   1.410       .  A
C1539      C1546   1.443       .  S
C1540      C1541   1.406       .  A
C1541      C1542   1.401       .  A
C1541      H1544   1.085       .  S
C1542      C1545   1.444       .  S
C1545      N1547   1.157       .  T
C1546      N1548   1.157       .  T
C1549      C1550   1.406       .  A
C1549      C1554   1.411       .  A
C1550      C1551   1.400       .  A
C1550      H1555   1.084       .  S
C1551      C1552   1.407       .  A
C1551      C1558   1.444       .  S
C1552      C1553   1.404       .  A
C1553      C1554   1.404       .  A
C1553      H1556   1.085       .  S
C1554      C1557   1.443       .  S
C1557      N1559   1.157       .  T
C1558      N1560   1.157       .  T
C1561      C1562   1.398       .  A
C1561      C1566   1.409       .  A
C1562      C1563   1.400       .  A
C1562      H1567   1.084       .  S
C1563      C1564   1.419       .  A
C1563      C1570   1.444       .  S
C1564      C1565   1.408       .  A
C1565      C1566   1.406       .  A
C1565      H1568   1.084       .  S
C1566      C1569   1.442       .  S
C1569      N1571   1.157       .  T
C1570      N1572   1.157       .  T
C1573      C1574   1.403       .  A
C1573      C1578   1.413       .  A
C1574      C1575   1.402       .  A
C1574      H1579   1.084       .  S
C1575      C1576   1.411       .  A
C1575      C1582   1.443       .  S
C1576      C1577   1.398       .  A
C1577      C1578   1.396       .  A
C1577      H1580   1.085       .  S
C1578      C1581   1.445       .  S
C1581      N1583   1.157       .  T
C1582      N1584   1.157       .  T
C1585      C1586   1.398       .  A
C1585      C1590   1.410       .  A
C1586      C1587   1.398       .  A
C1586      H1591   1.085       .  S
C1587      C1588   1.417       .  A
C1587      C1594   1.444       .  S
C1588      C1589   1.404       .  A
C1589      C1590   1.400       .  A
C1589      H1592   1.085       .  S
C1590      C1593   1.444       .  S
C1593      N1595   1.157       .  T
C1594      N1596   1.157       .  T
C1597      C1598   1.401       .  A
C1597      C1602   1.411       .  A
C1598      C1599   1.404       .  A
C1598      H1603   1.084       .  S
C1599      C1600   1.420       .  A
C1599      C1606   1.444       .  S
C1600      C1601   1.408       .  A
C1601      C1602   1.407       .  A
C1601      H1604   1.084       .  S
C1602      C1605   1.441       .  S
C1605      N1607   1.157       .  T
C1606      N1608   1.157       .  T
C1609      C1610   1.414       .  A
C1609      C1614   1.415       .  A
C1610      C1611   1.402       .  A
C1610      H1615   1.084       .  S
C1611      C1612   1.412       .  A
C1611      C1618   1.444       .  S
C1612      C1613   1.407       .  A
C1613      C1614   1.400       .  A
C1613      H1616   1.086       .  S
C1614      C1617   1.440       .  S
C1617      N1619   1.157       .  T
C1618      N1620   1.158       .  T
C1621      C1622   1.401       .  A
C1621      C1626   1.413       .  A
C1622      C1623   1.398       .  A
C1622      H1627   1.085       .  S
C1623      C1624   1.412       .  A
C1623      C1630   1.444       .  S
C1624      C1625   1.403       .  A
C1625      C1626   1.403       .  A
C1625      H1628   1.085       .  S
C1626      C1629   1.443       .  S
C1629      N1631   1.157       .  T
C1630      N1632   1.157       .  T
C1633      C1634   1.410       .  A
C1633      C1638   1.418       .  A
C1634      C1635   1.409       .  A
C1634      H1639   1.084       .  S
C1635      C1636   1.407       .  A
C1635      C1642   1.441       .  S
C1636      C1637   1.401       .  A
C1637      C1638   1.397       .  A
C1637      H1640   1.085       .  S
C1638      C1641   1.446       .  S
C1641      N1643   1.157   1_554  T
C1642      N1644   1.157       .  T
C1645      C1646   1.406       .  A
C1645      C1650   1.408       .  A
C1646      C1647   1.404       .  A
C1646      H1651   1.085       .  S
C1647      C1648   1.412       .  A
C1647      C1654   1.444       .  S
C1648      C1649   1.407       .  A
C1649      C1650   1.401       .  A
C1649      H1652   1.085       .  S
C1650      C1653   1.443       .  S
C1653      N1655   1.157       .  T
C1654      N1656   1.157       .  T
C1657      C1658   1.408       .  A
C1657      C1662   1.413       .  A
C1658      C1659   1.401       .  A
C1658      H1663   1.085       .  S
C1659      C1660   1.408       .  A
C1659      C1666   1.443       .  S
C1660      C1661   1.404       .  A
C1661      C1662   1.404       .  A
C1661      H1664   1.085       .  S
C1662      C1665   1.444       .  S
C1665      N1667   1.157       .  T
C1666      N1668   1.157       .  T
C1669      C1670   1.404       .  A
C1669      C1674   1.409       .  A
C1670      C1671   1.405       .  A
C1670      H1675   1.084       .  S
C1671      C1672   1.419       .  A
C1671      C1678   1.443       .  S
C1672      C1673   1.409       .  A
C1673      C1674   1.400       .  A
C1673      H1676   1.084       .  S
C1674      C1677   1.442       .  S
C1677      N1679   1.157       .  T
C1678      N1680   1.157       .  T
C1681      C1682   1.407       .  A
C1681      C1686   1.413       .  A
C1682      C1683   1.399       .  A
C1682      H1687   1.085       .  S
C1683      C1684   1.407       .  A
C1683      C1690   1.444       .  S
C1684      C1685   1.404       .  A
C1685      C1686   1.407       .  A
C1685      H1688   1.085       .  S
C1686      C1689   1.442       .  S
C1689      N1691   1.157       .  T
C1690      N1692   1.157       .  T
C1693      C1694   1.404       .  A
C1693      C1698   1.408       .  A
C1694      C1695   1.404       .  A
C1694      H1699   1.085       .  S
C1695      C1696   1.409       .  A
C1695      C1702   1.443       .  S
C1696      C1697   1.403       .  A
C1697      C1698   1.398       .  A
C1697      H1700   1.085       .  S
C1698      C1701   1.443       .  S
C1701      N1703   1.157       .  T
C1702      N1704   1.157       .  T
C1705      C1706   1.403       .  A
C1705      C1710   1.409       .  A
C1706      C1707   1.400       .  A
C1706      H1711   1.082       .  S
C1707      C1708   1.409       .  A
C1707      C1714   1.444       .  S
C1708      C1709   1.406       .  A
C1709      C1710   1.407       .  A
C1709      H1712   1.085       .  S
C1710      C1713   1.441       .  S
C1713      N1715   1.157       .  T
C1714      N1716   1.157       .  T
C1717      C1718   1.404       .  A
C1717      C1722   1.418       .  A
C1718      C1719   1.402       .  A
C1718      H1723   1.084       .  S
C1719      C1720   1.411       .  A
C1719      C1726   1.443       .  S
C1720      C1721   1.400       .  A
C1721      C1722   1.401       .  A
C1721      H1724   1.085       .  S
C1722      C1725   1.445       .  S
C1725      N1727   1.157       .  T
C1726      N1728   1.157       .  T
C1729      C1730   1.399       .  A
C1729      C1734   1.412       .  A
C1730      C1731   1.402       .  A
C1730      H1735   1.085       .  S
C1731      C1732   1.419       .  A
C1731      C1738   1.445       .  S
C1732      C1733   1.405       .  A
C1733      C1734   1.405       .  A
C1733      H1736   1.084       .  S
C1734      C1737   1.443       .  S
C1737      N1739   1.157       .  T
C1738      N1740   1.157       .  T
C1741      C1742   1.407       .  A
C1741      C1746   1.419       .  A
C1742      C1743   1.406       .  A
C1742      H1747   1.084       .  S
C1743      C1744   1.410       .  A
C1743      C1750   1.441       .  S
C1744      C1745   1.398       .  A
C1745      C1746   1.400       .  A
C1745      H1748   1.084       .  S
C1746      C1749   1.444       .  S
C1749      N1751   1.157       .  T
C1750      N1752   1.157       .  T
C1753      C1754   1.404       .  A
C1753      C1758   1.406       .  A
C1754      C1755   1.404       .  A
C1754      H1759   1.085       .  S
C1755      C1756   1.412       .  A
C1755      C1762   1.441       .  S
C1756      C1757   1.409       .  A
C1757      C1758   1.398       .  A
C1757      H1760   1.085       .  S
C1758      C1761   1.444       .  S
C1761      N1763   1.157       .  T
C1762      N1764   1.157       .  T
C1765      C1766   1.403       .  A
C1765      C1770   1.410       .  A
C1766      C1767   1.396       .  A
C1766      H1771   1.085       .  S
C1767      C1768   1.409       .  A
C1767      C1774   1.444       .  S
C1768      C1769   1.405       .  A
C1769      C1770   1.404       .  A
C1769      H1772   1.084       .  S
C1770      C1773   1.443       .  S
C1773      N1775   1.157       .  T
C1774      N1776   1.157       .  T
C1777      C1778   1.406       .  A
C1777      C1782   1.416       .  A
C1778      C1779   1.409       .  A
C1778      H1783   1.084       .  S
C1779      C1780   1.413       .  A
C1779      C1786   1.443       .  S
C1780      C1781   1.401       .  A
C1781      C1782   1.404       .  A
C1781      H1784   1.085       .  S
C1782      C1785   1.442       .  S
C1785      N1787   1.157       .  T
C1786      N1788   1.157   1_455  T
C1789      C1790   1.402       .  A
C1789      C1794   1.412       .  A
C1790      C1791   1.399       .  A
C1790      H1795   1.085       .  S
C1791      C1792   1.413       .  A
C1791      C1798   1.445       .  S
C1792      C1793   1.404       .  A
C1793      C1794   1.405       .  A
C1793      H1796   1.084       .  S
C1794      C1797   1.442       .  S
C1797      N1799   1.157       .  T
C1798      N1800   1.157       .  T
C1801      C1802   1.406       .  A
C1801      C1806   1.408       .  A
C1802      C1803   1.404       .  A
C1802      H1807   1.084       .  S
C1803      C1804   1.412       .  A
C1803      C1810   1.444       .  S
C1804      C1805   1.408       .  A
C1805      C1806   1.403       .  A
C1805      H1808   1.085       .  S
C1806      C1809   1.443       .  S
C1809      N1811   1.157       .  T
C1810      N1812   1.157       .  T
C1813      C1814   1.409       .  A
C1813      C1818   1.417       .  A
C1814      C1815   1.401       .  A
C1814      H1819   1.084       .  S
C1815      C1816   1.408       .  A
C1815      C1822   1.442       .  S
C1816      C1817   1.403       .  A
C1817      C1818   1.406       .  A
C1817      H1820   1.079       .  S
C1818      C1821   1.443       .  S
C1821      N1823   1.157       .  T
C1822      N1824   1.157       .  T
C1825      C1826   1.402       .  A
C1825      C1830   1.418       .  A
C1826      C1827   1.401       .  A
C1826      H1831   1.080       .  S
C1827      C1828   1.424       .  A
C1827      C1834   1.446       .  S
C1828      C1829   1.410       .  A
C1829      C1830   1.405       .  A
C1829      H1832   1.077       .  S
C1830      C1833   1.445       .  S
C1833      N1835   1.157       .  T
C1834      N1836   1.157       .  T
C1837      C1838   1.405       .  A
C1837      C1842   1.416       .  A
C1838      C1839   1.402       .  A
C1838      H1843   1.085       .  S
C1839      C1840   1.411       .  A
C1839      C1846   1.443       .  S
C1840      C1841   1.400       .  A
C1841      C1842   1.400       .  A
C1841      H1844   1.085       .  S
C1842      C1845   1.445       .  S
C1845      N1847   1.157       .  T
C1846      N1848   1.157       .  T
C1849      C1850   1.402       .  A
C1849      C1854   1.408       .  A
C1850      C1851   1.397       .  A
C1850      H1855   1.084       .  S
C1851      C1852   1.418       .  A
C1851      C1858   1.445       .  S
C1852      C1853   1.410       .  A
C1853      C1854   1.405       .  A
C1853      H1856   1.084       .  S
C1854      C1857   1.442       .  S
C1857      N1859   1.157       .  T
C1858      N1860   1.157       .  T
C1861      C1862   1.403       .  A
C1861      C1866   1.410       .  A
C1862      C1863   1.406       .  A
C1862      H1867   1.084       .  S
C1863      C1864   1.412       .  A
C1863      C1870   1.441       .  S
C1864      C1865   1.403       .  A
C1865      C1866   1.396       .  A
C1865      H1868   1.085       .  S
C1866      C1869   1.445       .  S
C1869      N1871   1.157       .  T
C1870      N1872   1.157       .  T
C1873      C1874   1.405       .  A
C1873      C1878   1.412       .  A
C1874      C1875   1.407       .  A
C1874      H1879   1.084       .  S
C1875      C1876   1.412       .  A
C1875      C1882   1.443       .  S
C1876      C1877   1.401       .  A
C1877      C1878   1.397       .  A
C1877      H1880   1.085       .  S
C1878      C1881   1.444       .  S
C1881      N1883   1.157       .  T
C1882      N1884   1.157       .  T
C1885      C1886   1.404       .  A
C1885      C1890   1.409       .  A
C1886      C1887   1.409       .  A
C1886      H1891   1.084       .  S
C1887      C1888   1.413       .  A
C1887      C1894   1.444       .  S
C1888      C1889   1.403       .  A
C1889      C1890   1.402       .  A
C1889      H1892   1.085       .  S
C1890      C1893   1.442       .  S
C1893      N1895   1.157       .  T
C1894      N1896   1.157       .  T
C1897      C1898   1.414       .  A
C1897      C1902   1.415       .  A
C1898      C1899   1.399       .  A
C1898      H1903   1.083       .  S
C1899      C1900   1.410       .  A
C1899      C1906   1.445       .  S
C1900      C1901   1.408       .  A
C1901      C1902   1.402       .  A
C1901      H1904   1.085       .  S
C1902      C1905   1.440       .  S
C1905      N1907   1.157       .  T
C1906      N1908   1.157       .  T
C1909      C1910   1.406       .  A
C1909      C1914   1.409       .  A
C1910      C1911   1.400       .  A
C1910      H1915   1.085       .  S
C1911      C1912   1.410       .  A
C1911      C1918   1.444       .  S
C1912      C1913   1.407       .  A
C1913      C1914   1.402       .  A
C1913      H1916   1.085       .  S
C1914      C1917   1.443       .  S
C1917      N1919   1.157       .  T
C1918      N1920   1.157       .  T
C1921      C1922   1.406       .  A
C1921      C1926   1.412       .  A
C1922      C1923   1.412       .  A
C1922      H1927   1.084       .  S
C1923      C1924   1.420       .  A
C1923      C1930   1.443       .  S
C1924      C1925   1.407       .  A
C1925      C1926   1.398       .  A
C1925      H1928   1.084       .  S
C1926      C1929   1.443       .  S
C1929      N1931   1.157       .  T
C1930      N1932   1.157       .  T
C1933      C1934   1.405       .  A
C1933      C1938   1.411       .  A
C1934      C1935   1.404       .  A
C1934      H1939   1.085       .  S
C1935      C1936   1.413       .  A
C1935      C1942   1.444       .  S
C1936      C1937   1.405       .  A
C1937      C1938   1.403       .  A
C1937      H1940   1.085       .  S
C1938      C1941   1.443       .  S
C1941      N1943   1.157       .  T
C1942      N1944   1.157       .  T
C1945      C1946   1.405       .  A
C1945      C1950   1.410       .  A
C1946      C1947   1.401       .  A
C1946      H1951   1.085       .  S
C1947      C1948   1.409       .  A
C1947      C1954   1.444       .  S
C1948      C1949   1.405       .  A
C1949      C1950   1.406       .  A
C1949      H1952   1.084       .  S
C1950      C1953   1.442       .  S
C1953      N1955   1.157       .  T
C1954      N1956   1.157       .  T
C1957      C1958   1.407       .  A
C1957      C1962   1.417       .  A
C1958      C1959   1.398       .  A
C1958      H1963   1.085       .  S
C1959      C1960   1.406       .  A
C1959      C1966   1.443       .  S
C1960      C1961   1.400       .  A
C1961      C1962   1.403       .  A
C1961      H1964   1.083       .  S
C1962      C1965   1.443       .  S
C1965      N1967   1.157       .  T
C1966      N1968   1.157       .  T
C1969      C1970   1.407       .  A
C1969      C1974   1.413       .  A
C1970      C1971   1.401       .  A
C1970      H1975   1.085       .  S
C1971      C1972   1.409       .  A
C1971      C1978   1.444       .  S
C1972      C1973   1.404       .  A
C1973      C1974   1.406       .  A
C1973      H1976   1.085       .  S
C1974      C1977   1.442       .  S
C1977      N1979   1.157       .  T
C1978      N1980   1.157       .  T
C1981      C1982   1.405       .  A
C1981      C1986   1.409       .  A
C1982      C1983   1.407       .  A
C1982      H1987   1.084       .  S
C1983      C1984   1.410       .  A
C1983      C1990   1.442       .  S
C1984      C1985   1.404       .  A
C1985      C1986   1.401       .  A
C1985      H1988   1.085       .  S
C1986      C1989   1.443       .  S
C1989      N1991   1.157       .  T
C1990      N1992   1.157       .  T
C1993      C1994   1.401       .  A
C1993      C1998   1.408       .  A
C1994      C1995   1.401       .  A
C1994      H1999   1.083       .  S
C1995      C1996   1.412       .  A
C1995      C2002   1.444       .  S
C1996      C1997   1.406       .  A
C1997      C1998   1.407       .  A
C1997      H2000   1.084       .  S
C1998      C2001   1.441       .  S
C2001      N2003   1.157       .  T
C2002      N2004   1.157       .  T
C2005      C2006   1.406       .  A
C2005      C2010   1.411       .  A
C2006      C2007   1.399       .  A
C2006      H2011   1.085       .  S
C2007      C2008   1.408       .  A
C2007      C2014   1.444       .  S
C2008      C2009   1.405       .  A
C2009      C2010   1.405       .  A
C2009      H2012   1.084       .  S
C2010      C2013   1.443       .  S
C2013      N2015   1.157       .  T
C2014      N2016   1.157       .  T
C2017      C2018   1.398       .  A
C2017      C2022   1.412       .  A
C2018      C2019   1.399       .  A
C2018      H2023   1.085       .  S
C2019      C2020   1.415       .  A
C2019      C2026   1.445       .  S
C2020      C2021   1.403       .  A
C2021      C2022   1.404       .  A
C2021      H2024   1.084       .  S
C2022      C2025   1.443       .  S
C2025      N2027   1.157       .  T
C2026      N2028   1.157       .  T
C2029      C2030   1.401       .  A
C2029      C2034   1.410       .  A
C2030      C2031   1.404       .  A
C2030      H2035   1.084       .  S
C2031      C2032   1.420       .  A
C2031      C2038   1.444       .  S
C2032      C2033   1.408       .  A
C2033      C2034   1.406       .  A
C2033      H2036   1.084       .  S
C2034      C2037   1.442       .  S
C2037      N2039   1.157       .  T
C2038      N2040   1.157       .  T
C2041      C2042   1.403       .  A
C2041      C2046   1.413       .  A
C2042      C2043   1.404       .  A
C2042      H2047   1.084       .  S
C2043      C2044   1.412       .  A
C2043      C2050   1.443       .  S
C2044      C2045   1.400       .  A
C2045      C2046   1.396       .  A
C2045      H2048   1.085       .  S
C2046      C2049   1.445       .  S
C2049      N2051   1.157       .  T
C2050      N2052   1.157       .  T
C2053      C2054   1.407       .  A
C2053      C2058   1.413       .  A
C2054      C2055   1.397       .  A
C2054      H2059   1.085       .  S
C2055      C2056   1.407       .  A
C2055      C2062   1.444       .  S
C2056      C2057   1.403       .  A
C2057      C2058   1.404       .  A
C2057      H2060   1.085       .  S
C2058      C2061   1.442       .  S
C2061      N2063   1.157       .  T
C2062      N2064   1.157       .  T
C2065      C2066   1.406       .  A
C2065      C2070   1.416       .  A
C2066      C2067   1.407       .  A
C2066      H2071   1.084       .  S
C2067      C2068   1.412       .  A
C2067      C2074   1.443       .  S
C2068      C2069   1.401       .  A
C2069      C2070   1.404       .  A
C2069      H2072   1.085       .  S
C2070      C2073   1.441       .  S
C2073      N2075   1.157       .  T
C2074      N2076   1.157       .  T
C2077      C2078   1.404       .  A
C2077      C2082   1.408       .  A
C2078      C2079   1.400       .  A
C2078      H2083   1.085       .  S
C2079      C2080   1.408       .  A
C2079      C2086   1.443       .  S
C2080      C2081   1.404       .  A
C2081      C2082   1.397       .  A
C2081      H2084   1.085       .  S
C2082      C2085   1.443       .  S
C2085      N2087   1.157       .  T
C2086      N2088   1.157       .  T
C2089      C2090   1.406       .  A
C2089      C2094   1.424       .  A
C2090      C2091   1.398       .  A
C2090      H2095   1.075       .  S
C2091      C2092   1.416       .  A
C2091      C2098   1.446       .  S
C2092      C2093   1.402       .  A
C2093      C2094   1.401       .  A
C2093      H2096   1.083       .  S
C2094      C2097   1.444       .  S
C2097      N2099   1.158       .  T
C2098      N2100   1.157       .  T
C2101      C2102   1.402       .  A
C2101      C2106   1.409       .  A
C2102      C2103   1.398       .  A
C2102      H2107   1.084       .  S
C2103      C2104   1.417       .  A
C2103      C2110   1.445       .  S
C2104      C2105   1.411       .  A
C2105      C2106   1.408       .  A
C2105      H2108   1.084       .  S
C2106      C2109   1.441       .  S
C2109      N2111   1.157       .  T
C2110      N2112   1.157       .  T
C2113      C2114   1.399       .  A
C2113      C2118   1.411       .  A
C2114      C2115   1.399       .  A
C2114      H2119   1.085       .  S
C2115      C2116   1.413       .  A
C2115      C2122   1.444       .  S
C2116      C2117   1.404       .  A
C2117      C2118   1.405       .  A
C2117      H2120   1.084       .  S
C2118      C2121   1.443       .  S
C2121      N2123   1.157       .  T
C2122      N2124   1.157       .  T
C2125      C2126   1.403       .  A
C2125      C2130   1.414       .  A
C2126      C2127   1.404       .  A
C2126      H2131   1.085       .  S
C2127      C2128   1.413       .  A
C2127      C2134   1.443       .  S
C2128      C2129   1.400       .  A
C2129      C2130   1.402       .  A
C2129      H2132   1.085       .  S
C2130      C2133   1.442       .  S
C2133      N2135   1.156       .  T
C2134      N2136   1.157       .  T
C2137      C2138   1.400       .  A
C2137      C2142   1.408       .  A
C2138      C2139   1.406       .  A
C2138      H2143   1.083       .  S
C2139      C2140   1.421       .  A
C2139      C2146   1.443       .  S
C2140      C2141   1.408       .  A
C2141      C2142   1.405       .  A
C2141      H2144   1.084       .  S
C2142      C2145   1.441       .  S
C2145      N2147   1.157       .  T
C2146      N2148   1.157       .  T
C2149      C2150   1.400       .  A
C2149      C2154   1.413       .  A
C2150      C2151   1.399       .  A
C2150      H2155   1.085       .  S
C2151      C2152   1.414       .  A
C2151      C2158   1.445       .  S
C2152      C2153   1.402       .  A
C2153      C2154   1.405       .  A
C2153      H2156   1.084       .  S
C2154      C2157   1.443       .  S
C2157      N2159   1.157       .  T
C2158      N2160   1.157       .  T
C2161      C2162   1.405       .  A
C2161      C2166   1.415       .  A
C2162      C2163   1.405       .  A
C2162      H2167   1.084       .  S
C2163      C2164   1.413       .  A
C2163      C2170   1.443       .  S
C2164      C2165   1.399       .  A
C2165      C2166   1.397       .  A
C2165      H2168   1.085       .  S
C2166      C2169   1.442       .  S
C2169      N2171   1.156       .  T
C2170      N2172   1.157       .  T
C2173      C2174   1.401       .  A
C2173      C2178   1.408       .  A
C2174      C2175   1.406       .  A
C2174      H2179   1.080       .  S
C2175      C2176   1.415       .  A
C2175      C2182   1.442       .  S
C2176      C2177   1.407       .  A
C2177      C2178   1.402       .  A
C2177      H2180   1.085       .  S
C2178      C2181   1.443       .  S
C2181      N2183   1.157       .  T
C2182      N2184   1.157       .  T
C2185      C2186   1.404       .  A
C2185      C2190   1.408       .  A
C2186      C2187   1.402       .  A
C2186      H2191   1.085       .  S
C2187      C2188   1.411       .  A
C2187      C2194   1.443       .  S
C2188      C2189   1.405       .  A
C2189      C2190   1.400       .  A
C2189      H2192   1.085       .  S
C2190      C2193   1.444       .  S
C2193      N2195   1.157       .  T
C2194      N2196   1.157       .  T
C2197      C2198   1.399       .  A
C2197      C2202   1.412       .  A
C2198      C2199   1.403       .  A
C2198      H2203   1.083       .  S
C2199      C2200   1.430       .  A
C2199      C2206   1.446       .  S
C2200      C2201   1.411       .  A
C2201      C2202   1.400       .  A
C2201      H2204   1.078       .  S
C2202      C2205   1.445       .  S
C2205      N2207   1.157       .  T
C2206      N2208   1.158       .  T
C2209      C2210   1.402       .  A
C2209      C2214   1.411       .  A
C2210      C2211   1.402       .  A
C2210      H2215   1.084       .  S
C2211      C2212   1.421       .  A
C2211      C2218   1.444       .  S
C2212      C2213   1.411       .  A
C2213      C2214   1.407       .  A
C2213      H2216   1.084       .  S
C2214      C2217   1.442       .  S
C2217      N2219   1.157       .  T
C2218      N2220   1.157       .  T
C2221      C2222   1.401       .  A
C2221      C2226   1.410       .  A
C2222      C2223   1.400       .  A
C2222      H2227   1.085       .  S
C2223      C2224   1.412       .  A
C2223      C2230   1.445       .  S
C2224      C2225   1.401       .  A
C2225      C2226   1.402       .  A
C2225      H2228   1.084       .  S
C2226      C2229   1.443       .  S
C2229      N2231   1.157       .  T
C2230      N2232   1.157       .  T
C2233      C2234   1.408       .  A
C2233      C2238   1.410       .  A
C2234      C2235   1.400       .  A
C2234      H2239   1.085       .  S
C2235      C2236   1.407       .  A
C2235      C2242   1.443       .  S
C2236      C2237   1.404       .  A
C2237      C2238   1.403       .  A
C2237      H2240   1.085       .  S
C2238      C2241   1.442       .  S
C2241      N2243   1.157       .  T
C2242      N2244   1.157       .  T
C2245      C2246   1.403       .  A
C2245      C2250   1.411       .  A
C2246      C2247   1.401       .  A
C2246      H2251   1.084       .  S
C2247      C2248   1.410       .  A
C2247      C2254   1.443       .  S
C2248      C2249   1.407       .  A
C2249      C2250   1.410       .  A
C2249      H2252   1.084       .  S
C2250      C2253   1.441       .  S
C2253      N2255   1.157       .  T
C2254      N2256   1.157   1_545  T
C2257      C2258   1.405       .  A
C2257      C2262   1.407       .  A
C2258      C2259   1.406       .  A
C2258      H2263   1.085       .  S
C2259      C2260   1.413       .  A
C2259      C2266   1.443       .  S
C2260      C2261   1.407       .  A
C2261      C2262   1.399       .  A
C2261      H2264   1.085       .  S
C2262      C2265   1.443       .  S
C2265      N2267   1.157       .  T
C2266      N2268   1.157       .  T
C2269      C2270   1.405       .  A
C2269      C2274   1.408       .  A
C2270      C2271   1.402       .  A
C2270      H2275   1.084       .  S
C2271      C2272   1.410       .  A
C2271      C2278   1.444       .  S
C2272      C2273   1.406       .  A
C2273      C2274   1.400       .  A
C2273      H2276   1.085       .  S
C2274      C2277   1.443       .  S
C2277      N2279   1.157       .  T
C2278      N2280   1.157       .  T
C2281      C2282   1.404       .  A
C2281      C2286   1.408       .  A
C2282      C2283   1.408       .  A
C2282      H2287   1.084       .  S
C2283      C2284   1.419       .  A
C2283      C2290   1.443       .  S
C2284      C2285   1.408       .  A
C2285      C2286   1.400       .  A
C2285      H2288   1.084       .  S
C2286      C2289   1.442       .  S
C2289      N2291   1.157       .  T
C2290      N2292   1.157       .  T
C2293      C2294   1.405       .  A
C2293      C2298   1.407       .  A
C2294      C2295   1.405       .  A
C2294      H2299   1.084       .  S
C2295      C2296   1.410       .  A
C2295      C2302   1.443       .  S
C2296      C2297   1.405       .  A
C2297      C2298   1.398       .  A
C2297      H2300   1.085       .  S
C2298      C2301   1.444       .  S
C2301      N2303   1.157       .  T
C2302      N2304   1.157       .  T
C2305      C2306   1.400       .  A
C2305      C2310   1.413       .  A
C2306      C2307   1.401       .  A
C2306      H2311   1.085       .  S
C2307      C2308   1.417       .  A
C2307      C2314   1.445       .  S
C2308      C2309   1.403       .  A
C2309      C2310   1.402       .  A
C2309      H2312   1.085       .  S
C2310      C2313   1.444       .  S
C2313      N2315   1.157       .  T
C2314      N2316   1.157       .  T
C2317      C2318   1.407       .  A
C2317      C2322   1.418       .  A
C2318      C2319   1.405       .  A
C2318      H2323   1.084       .  S
C2319      C2320   1.409       .  A
C2319      C2326   1.441       .  S
C2320      C2321   1.402       .  A
C2321      C2322   1.407       .  A
C2321      H2324   1.084       .  S
C2322      C2325   1.443       .  S
C2325      N2327   1.157       .  T
C2326      N2328   1.157       .  T
C2329      C2330   1.407       .  A
C2329      C2334   1.426       .  A
C2330      C2331   1.401       .  A
C2330      H2335   1.076       .  S
C2331      C2332   1.415       .  A
C2331      C2338   1.446       .  S
C2332      C2333   1.401       .  A
C2333      C2334   1.403       .  A
C2333      H2336   1.084       .  S
C2334      C2337   1.444       .  S
C2337      N2339   1.157       .  T
C2338      N2340   1.157       .  T
C2341      C2342   1.404       .  A
C2341      C2346   1.409       .  A
C2342      C2343   1.404       .  A
C2342      H2347   1.084       .  S
C2343      C2344   1.410       .  A
C2343      C2350   1.443       .  S
C2344      C2345   1.404       .  A
C2345      C2346   1.400       .  A
C2345      H2348   1.085       .  S
C2346      C2349   1.444       .  S
C2349      N2351   1.157       .  T
C2350      N2352   1.157       .  T
C2353      C2354   1.403       .  A
C2353      C2358   1.408       .  A
C2354      C2355   1.399       .  A
C2354      H2359   1.084       .  S
C2355      C2356   1.416       .  A
C2355      C2362   1.445       .  S
C2356      C2357   1.410       .  A
C2357      C2358   1.408       .  A
C2357      H2360   1.084       .  S
C2358      C2361   1.441       .  S
C2361      N2363   1.157       .  T
C2362      N2364   1.157       .  T
C2365      C2366   1.404       .  A
C2365      C2370   1.411       .  A
C2366      C2367   1.407       .  A
C2366      H2371   1.084       .  S
C2367      C2368   1.411       .  A
C2367      C2374   1.442       .  S
C2368      C2369   1.401       .  A
C2369      C2370   1.399       .  A
C2369      H2372   1.085       .  S
C2370      C2373   1.444       .  S
C2373      N2375   1.157       .  T
C2374      N2376   1.157       .  T
C2377      C2378   1.402       .  A
C2377      C2382   1.411       .  A
C2378      C2379   1.400       .  A
C2378      H2383   1.085       .  S
C2379      C2380   1.412       .  A
C2379      C2386   1.444       .  S
C2380      C2381   1.405       .  A
C2381      C2382   1.406       .  A
C2381      H2384   1.084       .  S
C2382      C2385   1.443       .  S
C2385      N2387   1.157       .  T
C2386      N2388   1.157       .  T
C2389      C2390   1.402       .  A
C2389      C2394   1.409       .  A
C2390      C2391   1.407       .  A
C2390      H2395   1.084       .  S
C2391      C2392   1.414       .  A
C2391      C2398   1.443       .  S
C2392      C2393   1.405       .  A
C2393      C2394   1.403       .  A
C2393      H2396   1.085       .  S
C2394      C2397   1.442       .  S
C2397      N2399   1.157       .  T
C2398      N2400   1.157       .  T
C2401      C2402   1.405       .  A
C2401      C2406   1.410       .  A
C2402      C2403   1.395       .  A
C2402      H2407   1.085       .  S
C2403      C2404   1.407       .  A
C2403      C2410   1.444       .  S
C2404      C2405   1.403       .  A
C2405      C2406   1.402       .  A
C2405      H2408   1.085       .  S
C2406      C2409   1.442       .  S
C2409      N2411   1.157       .  T
C2410      N2412   1.157       .  T
C2413      C2414   1.400       .  A
C2413      C2418   1.410       .  A
C2414      C2415   1.396       .  A
C2414      H2419   1.085       .  S
C2415      C2416   1.410       .  A
C2415      C2422   1.444       .  S
C2416      C2417   1.402       .  A
C2417      C2418   1.402       .  A
C2417      H2420   1.084       .  S
C2418      C2421   1.443       .  S
C2421      N2423   1.157       .  T
C2422      N2424   1.157       .  T
C2425      C2426   1.405       .  A
C2425      C2430   1.413       .  A
C2426      C2427   1.401       .  A
C2426      H2431   1.084       .  S
C2427      C2428   1.409       .  A
C2427      C2434   1.443       .  S
C2428      C2429   1.405       .  A
C2429      C2430   1.408       .  A
C2429      H2432   1.085       .  S
C2430      C2433   1.441       .  S
C2433      N2435   1.157       .  T
C2434      N2436   1.157       .  T
C2437      C2438   1.404       .  A
C2437      C2442   1.413       .  A
C2438      C2439   1.402       .  A
C2438      H2443   1.082       .  S
C2439      C2440   1.409       .  A
C2439      C2446   1.443       .  S
C2440      C2441   1.399       .  A
C2441      C2442   1.395       .  A
C2441      H2444   1.085       .  S
C2442      C2445   1.445       .  S
C2445      N2447   1.157       .  T
C2446      N2448   1.157       .  T
C2449      C2450   1.404       .  A
C2449      C2454   1.406       .  A
C2450      C2451   1.401       .  A
C2450      H2455   1.084       .  S
C2451      C2452   1.409       .  A
C2451      C2458   1.443       .  S
C2452      C2453   1.408       .  A
C2453      C2454   1.400       .  A
C2453      H2456   1.085       .  S
C2454      C2457   1.443       .  S
C2457      N2459   1.157       .  T
C2458      N2460   1.157       .  T
C2461      C2462   1.409       .  A
C2461      C2466   1.417       .  A
C2462      C2463   1.403       .  A
C2462      H2467   1.084       .  S
C2463      C2464   1.405       .  A
C2463      C2470   1.441       .  S
C2464      C2465   1.402       .  A
C2465      C2466   1.404       .  A
C2465      H2468   1.084       .  S
C2466      C2469   1.444       .  S
C2469      N2471   1.157       .  T
C2470      N2472   1.157       .  T
C2473      C2474   1.404       .  A
C2473      C2478   1.408       .  A
C2474      C2475   1.403       .  A
C2474      H2479   1.084       .  S
C2475      C2476   1.409       .  A
C2475      C2482   1.443       .  S
C2476      C2477   1.405       .  A
C2477      C2478   1.401       .  A
C2477      H2480   1.085       .  S
C2478      C2481   1.444       .  S
C2481      N2483   1.157       .  T
C2482      N2484   1.157       .  T
C2485      C2486   1.403       .  A
C2485      C2490   1.412       .  A
C2486      C2487   1.398       .  A
C2486      H2491   1.085       .  S
C2487      C2488   1.411       .  A
C2487      C2494   1.445       .  S
C2488      C2489   1.401       .  A
C2489      C2490   1.403       .  A
C2489      H2492   1.084       .  S
C2490      C2493   1.441       .  S
C2493      N2495   1.157       .  T
C2494      N2496   1.157       .  T
C2497      C2498   1.407       .  A
C2497      C2502   1.414       .  A
C2498      C2499   1.404       .  A
C2498      H2503   1.085       .  S
C2499      C2500   1.407       .  A
C2499      C2506   1.442       .  S
C2500      C2501   1.400       .  A
C2501      C2502   1.404       .  A
C2501      H2504   1.080       .  S
C2502      C2505   1.443       .  S
C2505      N2507   1.157       .  T
C2506      N2508   1.157       .  T
C2509      C2510   1.403       .  A
C2509      C2514   1.410       .  A
C2510      C2511   1.404       .  A
C2510      H2515   1.084       .  S
C2511      C2512   1.411       .  A
C2511      C2518   1.443       .  S
C2512      C2513   1.400       .  A
C2513      C2514   1.397       .  A
C2513      H2516   1.085       .  S
C2514      C2517   1.443       .  S
C2517      N2519   1.157       .  T
C2518      N2520   1.157       .  T
C2521      C2522   1.402       .  A
C2521      C2526   1.413       .  A
C2522      C2523   1.395       .  A
C2522      H2527   1.085       .  S
C2523      C2524   1.409       .  A
C2523      C2530   1.445       .  S
C2524      C2525   1.404       .  A
C2525      C2526   1.407       .  A
C2525      H2528   1.084       .  S
C2526      C2529   1.442       .  S
C2529      N2531   1.157       .  T
C2530      N2532   1.157       .  T
C2533      C2534   1.403       .  A
C2533      C2538   1.410       .  A
C2534      C2535   1.399       .  A
C2534      H2539   1.084       .  S
C2535      C2536   1.409       .  A
C2535      C2542   1.443       .  S
C2536      C2537   1.403       .  A
C2537      C2538   1.404       .  A
C2537      H2540   1.085       .  S
C2538      C2541   1.441       .  S
C2541      N2543   1.157       .  T
C2542      N2544   1.157   1_545  T
C2545      C2546   1.405       .  A
C2545      C2550   1.407       .  A
C2546      C2547   1.401       .  A
C2546      H2551   1.085       .  S
C2547      C2548   1.412       .  A
C2547      C2554   1.444       .  S
C2548      C2549   1.408       .  A
C2549      C2550   1.398       .  A
C2549      H2552   1.085       .  S
C2550      C2553   1.443       .  S
C2553      N2555   1.157       .  T
C2554      N2556   1.157       .  T
C2557      C2558   1.404       .  A
C2557      C2562   1.407       .  A
C2558      C2559   1.404       .  A
C2558      H2563   1.084       .  S
C2559      C2560   1.409       .  A
C2559      C2566   1.443       .  S
C2560      C2561   1.403       .  A
C2561      C2562   1.397       .  A
C2561      H2564   1.085       .  S
C2562      C2565   1.444       .  S
C2565      N2567   1.157       .  T
C2566      N2568   1.157       .  T
C2569      C2570   1.402       .  A
C2569      C2574   1.409       .  A
C2570      C2571   1.403       .  A
C2570      H2575   1.084       .  S
C2571      C2572   1.419       .  A
C2571      C2578   1.444       .  S
C2572      C2573   1.408       .  A
C2573      C2574   1.402       .  A
C2573      H2576   1.084       .  S
C2574      C2577   1.441       .  S
C2577      N2579   1.157       .  T
C2578      N2580   1.157       .  T
C2581      C2582   1.399       .  A
C2581      C2586   1.412       .  A
C2582      C2583   1.402       .  A
C2582      H2587   1.085       .  S
C2583      C2584   1.418       .  A
C2583      C2590   1.443       .  S
C2584      C2585   1.404       .  A
C2585      C2586   1.403       .  A
C2585      H2588   1.084       .  S
C2586      C2589   1.443       .  S
C2589      N2591   1.157       .  T
C2590      N2592   1.157       .  T
C2593      C2594   1.406       .  A
C2593      C2598   1.411       .  A
C2594      C2595   1.401       .  A
C2594      H2599   1.085       .  S
C2595      C2596   1.410       .  A
C2595      C2602   1.443       .  S
C2596      C2597   1.406       .  A
C2597      C2598   1.406       .  A
C2597      H2600   1.085       .  S
C2598      C2601   1.442       .  S
C2601      N2603   1.157       .  T
C2602      N2604   1.157       .  T
C2605      C2606   1.407       .  A
C2605      C2610   1.418       .  A
C2606      C2607   1.400       .  A
C2606      H2611   1.085       .  S
C2607      C2608   1.408       .  A
C2607      C2614   1.441       .  S
C2608      C2609   1.403       .  A
C2609      C2610   1.406       .  A
C2609      H2612   1.084       .  S
C2610      C2613   1.443       .  S
C2613      N2615   1.157       .  T
C2614      N2616   1.157       .  T
C2617      C2618   1.402       .  A
C2617      C2622   1.415       .  A
C2618      C2619   1.400       .  A
C2618      H2623   1.085       .  S
C2619      C2620   1.411       .  A
C2619      C2626   1.443       .  S
C2620      C2621   1.400       .  A
C2621      C2622   1.401       .  A
C2621      H2624   1.085       .  S
C2622      C2625   1.444       .  S
C2625      N2627   1.157       .  T
C2626      N2628   1.157       .  T
C2629      C2630   1.403       .  A
C2629      C2634   1.409       .  A
C2630      C2631   1.405       .  A
C2630      H2635   1.084       .  S
C2631      C2632   1.410       .  A
C2631      C2638   1.442       .  S
C2632      C2633   1.404       .  A
C2633      C2634   1.400       .  A
C2633      H2636   1.085       .  S
C2634      C2637   1.445       .  S
C2637      N2639   1.157       .  T
C2638      N2640   1.157       .  T
C2641      C2642   1.408       .  A
C2641      C2646   1.417       .  A
C2642      C2643   1.404       .  A
C2642      H2647   1.085       .  S
C2643      C2644   1.408       .  A
C2643      C2650   1.442       .  S
C2644      C2645   1.401       .  A
C2645      C2646   1.406       .  A
C2645      H2648   1.084       .  S
C2646      C2649   1.443       .  S
C2649      N2651   1.157       .  T
C2650      N2652   1.157       .  T
C2653      C2654   1.403       .  A
C2653      C2658   1.408       .  A
C2654      C2655   1.401       .  A
C2654      H2659   1.085       .  S
C2655      C2656   1.412       .  A
C2655      C2662   1.444       .  S
C2656      C2657   1.407       .  A
C2657      C2658   1.401       .  A
C2657      H2660   1.085       .  S
C2658      C2661   1.443       .  S
C2661      N2663   1.157       .  T
C2662      N2664   1.157       .  T
C2665      C2666   1.403       .  A
C2665      C2670   1.409       .  A
C2666      C2667   1.404       .  A
C2666      H2671   1.084       .  S
C2667      C2668   1.411       .  A
C2667      C2674   1.443       .  S
C2668      C2669   1.403       .  A
C2669      C2670   1.399       .  A
C2669      H2672   1.085       .  S
C2670      C2673   1.444       .  S
C2673      N2675   1.157       .  T
C2674      N2676   1.157       .  T
C2677      C2678   1.401       .  A
C2677      C2682   1.408       .  A
C2678      C2679   1.405       .  A
C2678      H2683   1.084       .  S
C2679      C2680   1.419       .  A
C2679      C2686   1.444       .  S
C2680      C2681   1.408       .  A
C2681      C2682   1.403       .  A
C2681      H2684   1.084       .  S
C2682      C2685   1.442       .  S
C2685      N2687   1.157       .  T
C2686      N2688   1.157       .  T
C2689      C2690   1.401       .  A
C2689      C2694   1.411       .  A
C2690      C2691   1.399       .  A
C2690      H2695   1.085       .  S
C2691      C2692   1.411       .  A
C2691      C2698   1.444       .  S
C2692      C2693   1.403       .  A
C2693      C2694   1.405       .  A
C2693      H2696   1.084       .  S
C2694      C2697   1.443       .  S
C2697      N2699   1.157       .  T
C2698      N2700   1.157       .  T
C2701      C2702   1.398       .  A
C2701      C2706   1.412       .  A
C2702      C2703   1.400       .  A
C2702      H2707   1.085       .  S
C2703      C2704   1.419       .  A
C2703      C2710   1.445       .  S
C2704      C2705   1.404       .  A
C2705      C2706   1.403       .  A
C2705      H2708   1.084       .  S
C2706      C2709   1.443       .  S
C2709      N2711   1.157       .  T
C2710      N2712   1.157       .  T
C2713      C2714   1.400       .  A
C2713      C2718   1.409       .  A
C2714      C2715   1.403       .  A
C2714      H2719   1.083       .  S
C2715      C2716   1.416       .  A
C2715      C2722   1.443       .  S
C2716      C2717   1.408       .  A
C2717      C2718   1.407       .  A
C2717      H2720   1.085       .  S
C2718      C2721   1.442       .  S
C2721      N2723   1.157       .  T
C2722      N2724   1.157       .  T
C2725      C2726   1.409       .  A
C2725      C2730   1.413       .  A
C2726      C2727   1.400       .  A
C2726      H2731   1.085       .  S
C2727      C2728   1.407       .  A
C2727      C2734   1.443       .  S
C2728      C2729   1.406       .  A
C2729      C2730   1.404       .  A
C2729      H2732   1.085       .  S
C2730      C2733   1.444       .  S
C2733      N2735   1.157       .  T
C2734      N2736   1.157       .  T
C2737      C2738   1.406       .  A
C2737      C2742   1.408       .  A
C2738      C2739   1.406       .  A
C2738      H2743   1.084       .  S
C2739      C2740   1.411       .  A
C2739      C2746   1.443       .  S
C2740      C2741   1.406       .  A
C2741      C2742   1.401       .  A
C2741      H2744   1.085       .  S
C2742      C2745   1.443       .  S
C2745      N2747   1.157       .  T
C2746      N2748   1.157       .  T
C2749      C2750   1.408       .  A
C2749      C2754   1.418       .  A
C2750      C2751   1.403       .  A
C2750      H2755   1.084       .  S
C2751      C2752   1.410       .  A
C2751      C2758   1.442       .  S
C2752      C2753   1.404       .  A
C2753      C2754   1.406       .  A
C2753      H2756   1.084       .  S
C2754      C2757   1.443       .  S
C2757      N2759   1.157       .  T
C2758      N2760   1.157       .  T
C2761      C2762   1.399       .  A
C2761      C2766   1.416       .  A
C2762      C2763   1.403       .  A
C2762      H2767   1.085       .  S
C2763      C2764   1.418       .  A
C2763      C2770   1.444       .  S
C2764      C2765   1.404       .  A
C2765      C2766   1.407       .  A
C2765      H2768   1.084       .  S
C2766      C2769   1.443       .  S
C2769      N2771   1.157       .  T
C2770      N2772   1.157       .  T
C2773      C2774   1.405       .  A
C2773      C2778   1.412       .  A
C2774      C2775   1.409       .  A
C2774      H2779   1.084       .  S
C2775      C2776   1.412       .  A
C2775      C2782   1.442       .  S
C2776      C2777   1.402       .  A
C2777      C2778   1.400       .  A
C2777      H2780   1.085       .  S
C2778      C2781   1.444       .  S
C2781      N2783   1.157       .  T
C2782      N2784   1.157       .  T
C2785      C2786   1.406       .  A
C2785      C2790   1.415       .  A
C2786      C2787   1.402       .  A
C2786      H2791   1.085       .  S
C2787      C2788   1.407       .  A
C2787      C2794   1.442       .  S
C2788      C2789   1.403       .  A
C2789      C2790   1.408       .  A
C2789      H2792   1.084       .  S
C2790      C2793   1.443       .  S
C2793      N2795   1.157       .  T
C2794      N2796   1.157       .  T
C2797      C2798   1.402       .  A
C2797      C2802   1.410       .  A
C2798      C2799   1.404       .  A
C2798      H2803   1.084       .  S
C2799      C2800   1.412       .  A
C2799      C2806   1.442       .  S
C2800      C2801   1.403       .  A
C2801      C2802   1.400       .  A
C2801      H2804   1.085       .  S
C2802      C2805   1.444       .  S
C2805      N2807   1.157       .  T
C2806      N2808   1.157       .  T
C2809      C2810   1.403       .  A
C2809      C2814   1.409       .  A
C2810      C2811   1.403       .  A
C2810      H2815   1.084       .  S
C2811      C2812   1.410       .  A
C2811      C2818   1.443       .  S
C2812      C2813   1.402       .  A
C2813      C2814   1.398       .  A
C2813      H2816   1.085       .  S
C2814      C2817   1.444       .  S
C2817      N2819   1.157       .  T
C2818      N2820   1.157       .  T
C2821      C2822   1.403       .  A
C2821      C2826   1.412       .  A
C2822      C2823   1.402       .  A
C2822      H2827   1.084       .  S
C2823      C2824   1.410       .  A
C2823      C2830   1.443       .  S
C2824      C2825   1.402       .  A
C2825      C2826   1.402       .  A
C2825      H2828   1.085       .  S
C2826      C2829   1.442       .  S
C2829      N2831   1.157       .  T
C2830      N2832   1.157       .  T
C2833      C2834   1.402       .  A
C2833      C2838   1.411       .  A
C2834      C2835   1.395       .  A
C2834      H2839   1.085       .  S
C2835      C2836   1.409       .  A
C2835      C2842   1.445       .  S
C2836      C2837   1.402       .  A
C2837      C2838   1.402       .  A
C2837      H2840   1.084       .  S
C2838      C2841   1.443       .  S
C2841      N2843   1.157       .  T
C2842      N2844   1.157       .  T
C2845      C2846   1.406       .  A
C2845      C2850   1.411       .  A
C2846      C2847   1.395       .  A
C2846      H2851   1.085       .  S
C2847      C2848   1.406       .  A
C2847      C2854   1.444       .  S
C2848      C2849   1.402       .  A
C2849      C2850   1.401       .  A
C2849      H2852   1.085       .  S
C2850      C2853   1.442       .  S
C2853      N2855   1.157       .  T
C2854      N2856   1.157       .  T
C2857      C2858   1.407       .  A
C2857      C2862   1.414       .  A
C2858      C2859   1.408       .  A
C2858      H2863   1.084       .  S
C2859      C2860   1.411       .  A
C2859      C2866   1.444       .  S
C2860      C2861   1.400       .  A
C2861      C2862   1.402       .  A
C2861      H2864   1.085       .  S
C2862      C2865   1.442       .  S
C2865      N2867   1.157       .  T
C2866      N2868   1.157       .  T
C2869      C2870   1.400       .  A
C2869      C2874   1.415       .  A
C2870      C2871   1.402       .  A
C2870      H2875   1.085       .  S
C2871      C2872   1.419       .  A
C2871      C2878   1.445       .  S
C2872      C2873   1.403       .  A
C2873      C2874   1.402       .  A
C2873      H2876   1.085       .  S
C2874      C2877   1.444       .  S
C2877      N2879   1.157       .  T
C2878      N2880   1.157       .  T
C2881      C2882   1.402       .  A
C2881      C2886   1.414       .  A
C2882      C2883   1.401       .  A
C2882      H2887   1.081       .  S
C2883      C2884   1.426       .  A
C2883      C2890   1.447       .  S
C2884      C2885   1.409       .  A
C2885      C2886   1.402       .  A
C2885      H2888   1.079       .  S
C2886      C2889   1.444       .  S
C2889      N2891   1.157       .  T
C2890      N2892   1.158       .  T
C2893      C2894   1.405       .  A
C2893      C2898   1.409       .  A
C2894      C2895   1.407       .  A
C2894      H2899   1.084       .  S
C2895      C2896   1.418       .  A
C2895      C2902   1.443       .  S
C2896      C2897   1.407       .  A
C2897      C2898   1.398       .  A
C2897      H2900   1.085       .  S
C2898      C2901   1.442       .  S
C2901      N2903   1.157       .  T
C2902      N2904   1.157       .  T
C2905      C2906   1.404       .  A
C2905      C2910   1.408       .  A
C2906      C2907   1.401       .  A
C2906      H2911   1.085       .  S
C2907      C2908   1.412       .  A
C2907      C2914   1.444       .  S
C2908      C2909   1.408       .  A
C2909      C2910   1.400       .  A
C2909      H2912   1.085       .  S
C2910      C2913   1.443       .  S
C2913      N2915   1.157       .  T
C2914      N2916   1.157       .  T
C2917      C2918   1.406       .  A
C2917      C2922   1.411       .  A
C2918      C2919   1.399       .  A
C2918      H2923   1.085       .  S
C2919      C2920   1.407       .  A
C2919      C2926   1.444       .  S
C2920      C2921   1.404       .  A
C2921      C2922   1.404       .  A
C2921      H2924   1.084       .  S
C2922      C2925   1.443       .  S
C2925      N2927   1.157       .  T
C2926      N2928   1.157       .  T
C2929      C2930   1.403       .  A
C2929      C2934   1.410       .  A
C2930      C2931   1.405       .  A
C2930      H2935   1.083       .  S
C2931      C2932   1.419       .  A
C2931      C2938   1.444       .  S
C2932      C2933   1.407       .  A
C2933      C2934   1.400       .  A
C2933      H2936   1.084       .  S
C2934      C2937   1.441       .  S
C2937      N2939   1.157       .  T
C2938      N2940   1.157       .  T
C2941      C2942   1.405       .  A
C2941      C2946   1.410       .  A
C2942      C2943   1.407       .  A
C2942      H2947   1.084       .  S
C2943      C2944   1.413       .  A
C2943      C2950   1.442       .  S
C2944      C2945   1.404       .  A
C2945      C2946   1.400       .  A
C2945      H2948   1.085       .  S
C2946      C2949   1.444       .  S
C2949      N2951   1.157       .  T
C2950      N2952   1.157       .  T
C2953      C2954   1.404       .  A
C2953      C2958   1.411       .  A
C2954      C2955   1.401       .  A
C2954      H2959   1.085       .  S
C2955      C2956   1.410       .  A
C2955      C2962   1.444       .  S
C2956      C2957   1.407       .  A
C2957      C2958   1.408       .  A
C2957      H2960   1.084       .  S
C2958      C2961   1.442       .  S
C2961      N2963   1.157       .  T
C2962      N2964   1.157       .  T
C2965      C2966   1.405       .  A
C2965      C2970   1.412       .  A
C2966      C2967   1.406       .  A
C2966      H2971   1.084       .  S
C2967      C2968   1.411       .  A
C2967      C2974   1.444       .  S
C2968      C2969   1.401       .  A
C2969      C2970   1.402       .  A
C2969      H2972   1.084       .  S
C2970      C2973   1.442       .  S
C2973      N2975   1.157       .  T
C2974      N2976   1.157       .  T
C2977      C2978   1.402       .  A
C2977      C2982   1.410       .  A
C2978      C2979   1.400       .  A
C2978      H2983   1.085       .  S
C2979      C2980   1.411       .  A
C2979      C2986   1.444       .  S
C2980      C2981   1.404       .  A
C2981      C2982   1.405       .  A
C2981      H2984   1.084       .  S
C2982      C2985   1.443       .  S
C2985      N2987   1.157       .  T
C2986      N2988   1.157       .  T
C2989      C2990   1.401       .  A
C2989      C2994   1.411       .  A
C2990      C2991   1.397       .  A
C2990      H2995   1.085       .  S
C2991      C2992   1.410       .  A
C2991      C2998   1.445       .  S
C2992      C2993   1.404       .  A
C2993      C2994   1.405       .  A
C2993      H2996   1.084       .  S
C2994      C2997   1.443       .  S
C2997      N2999   1.157       .  T
C2998      N3000   1.157       .  T
C3001      C3002   1.403       .  A
C3001      C3006   1.414       .  A
C3002      C3003   1.403       .  A
C3002      H3007   1.084       .  S
C3003      C3004   1.411       .  A
C3003      C3010   1.444       .  S
C3004      C3005   1.402       .  A
C3005      C3006   1.405       .  A
C3005      H3008   1.085       .  S
C3006      C3009   1.442       .  S
C3009      N3011   1.157       .  T
C3010      N3012   1.157       .  T
C3013      C3014   1.399       .  A
C3013      C3018   1.411       .  A
C3014      C3015   1.399       .  A
C3014      H3019   1.085       .  S
C3015      C3016   1.417       .  A
C3015      C3022   1.445       .  S
C3016      C3017   1.405       .  A
C3017      C3018   1.402       .  A
C3017      H3020   1.085       .  S
C3018      C3021   1.444       .  S
C3021      N3023   1.157       .  T
C3022      N3024   1.157       .  T
C3025      C3026   1.399       .  A
C3025      C3030   1.410       .  A
C3026      C3027   1.397       .  A
C3026      H3031   1.085       .  S
C3027      C3028   1.411       .  A
C3027      C3034   1.444       .  S
C3028      C3029   1.404       .  A
C3029      C3030   1.402       .  A
C3029      H3032   1.084       .  S
C3030      C3033   1.443       .  S
C3033      N3035   1.157       .  T
C3034      N3036   1.157       .  T
C3037      C3038   1.400       .  A
C3037      C3042   1.406       .  A
C3038      C3039   1.402       .  A
C3038      H3043   1.084       .  S
C3039      C3040   1.415       .  A
C3039      C3046   1.444       .  S
C3040      C3041   1.405       .  A
C3041      C3042   1.402       .  A
C3041      H3044   1.085       .  S
C3042      C3045   1.442       .  S
C3045      N3047   1.157       .  T
C3046      N3048   1.157       .  T
