geometry optimzed in LAMMPS
_audit_creation_date              2020-11-30 
_audit_creation_method            'lammps2cif' 
_symmetry_space_group_name_H-M    'P1' 
_symmetry_Int_Tables_number       1 
_symmetry_cell_setting            triclinic 
loop_ 
_symmetry_equiv_pos_as_xyz 
  x,y,z 
_cell_length_a                    85.986488 
_cell_length_b                    85.85253599591101 
_cell_length_c                    86.15363377329602 
_cell_angle_alpha                 90.04266004341773 
_cell_angle_beta                  90.05924924849802 
_cell_angle_gamma                 89.93832065098441 
loop_ 
_atom_site_label 
_atom_site_type_symbol 
_atom_site_fract_x 
_atom_site_fract_y 
_atom_site_fract_z 
_atom_site_charge 
N1          N  0.75465946  0.88444609  0.41292496    -0.27100
N2          N  0.75457579  0.88873420  0.42765836    -0.34900
C3          C  0.75845231  0.87652384  0.43656979     0.01300
C4          C  0.76129171  0.86387871  0.42707516     0.07300
C5          C  0.75895431  0.86935989  0.41210680    -0.05800
H6          H  0.76082642  0.87727029  0.44891618     0.08000
H7          H  0.76134159  0.86317248  0.40139913     0.09200
Cu8        Cu  0.75371235  0.91163603  0.43482259     0.44200
Cu9        Cu  0.75093606  0.90032049  0.39495672     0.42000
Cu10       Cu  0.76272893  0.93971614  0.40552540     0.43900
N11         N  0.75773440  0.93483984  0.43947695    -0.34400
N12         N  0.76213634  0.94504577  0.42888160    -0.28700
C13         C  0.76344012  0.95915803  0.43555558    -0.04800
C14         C  0.75958154  0.95761045  0.45102205     0.07400
C15         C  0.75600157  0.94213073  0.45314522     0.01200
H16         H  0.76606120  0.96983375  0.42943202     0.08900
H17         H  0.75210573  0.93662928  0.46373504     0.07900
N18         N  0.75273982  0.93387053  0.38452530    -0.35900
N19         N  0.74739222  0.91987470  0.38097433    -0.28100
C20         C  0.73801133  0.92115415  0.36849058    -0.03300
C21         C  0.73762067  0.93665483  0.36390555     0.05300
C22         C  0.74709911  0.94429521  0.37437807     0.03400
H23         H  0.73110865  0.91173351  0.36380407     0.08500
H24         H  0.74827959  0.95677399  0.37573591     0.07300
N25         N  0.76056224  0.88284317  0.55381360    -0.27100
N26         N  0.76956695  0.89122856  0.54458708    -0.34900
C27         C  0.77932062  0.88173365  0.53700044     0.01300
C28         C  0.77638539  0.86661566  0.54150821     0.07300
C29         C  0.76427533  0.86765714  0.55205812    -0.05800
H30         H  0.78725702  0.88549450  0.52799419     0.08000
H31         H  0.75838294  0.85810874  0.55773283     0.09200
Cu32       Cu  0.76675551  0.91461750  0.53952750     0.44200
Cu33       Cu  0.74313597  0.89263733  0.56755495     0.42000
Cu34       Cu  0.72895814  0.92705562  0.54803109     0.43900
N35         N  0.75772029  0.93498170  0.53042282    -0.34400
N36         N  0.74309551  0.93893366  0.53287826    -0.28700
C37         C  0.73971794  0.95173230  0.52462104    -0.04800
C38         C  0.75290029  0.95607839  0.51657729     0.07400
C39         C  0.76415334  0.94523344  0.52050416     0.01200
H40         H  0.72846727  0.95738533  0.52441836     0.08900
H41         H  0.77585998  0.94445024  0.51599827     0.07900
N42         N  0.72077849  0.91936518  0.56906985    -0.35900
N43         N  0.72661544  0.90762738  0.57711456    -0.28100
C44         C  0.72092826  0.90831124  0.59171414    -0.03300
C45         C  0.71094002  0.92100525  0.59263789     0.05300
C46         C  0.71113007  0.92759738  0.57806754     0.03400
H47         H  0.72418798  0.90049180  0.60101637     0.08500
H48         H  0.70563998  0.93839028  0.57461046     0.07300
N49         N  0.76677099  0.09596557  0.41166137    -0.27100
N50         N  0.77495266  0.08740698  0.42148902    -0.34900
C51         C  0.78317663  0.09668965  0.43088046     0.01300
C52         C  0.78032439  0.11201801  0.42701771     0.07300
C53         C  0.76968569  0.11115669  0.41479471    -0.05800
H54         H  0.78953438  0.09247686  0.44089443     0.08000
H55         H  0.76396082  0.12083059  0.40914083     0.09200
Cu56       Cu  0.77200492  0.06404364  0.42592401     0.44200
Cu57       Cu  0.75057364  0.08583972  0.39618800     0.42000
Cu58       Cu  0.73369226  0.05433707  0.41812769     0.43900
N59         N  0.76154007  0.04535122  0.43657632    -0.34400
N60         N  0.74666207  0.04243411  0.43428961    -0.28700
C61         C  0.74233513  0.03046431  0.44327563    -0.04800
C62         C  0.75514416  0.02568797  0.45172600     0.07400
C63         C  0.76717034  0.03537374  0.44723815     0.01200
H64         H  0.73074370  0.02559875  0.44360060     0.08900
H65         H  0.77895797  0.03542241  0.45162163     0.07900
N66         N  0.72700340  0.06001053  0.39596613    -0.35900
N67         N  0.73389998  0.07033907  0.38691690    -0.28100
C68         C  0.72870417  0.06813224  0.37220814    -0.03300
C69         C  0.71792277  0.05600287  0.37233617     0.05300
C70         C  0.71720237  0.05131325  0.38758468     0.03400
H71         H  0.73262777  0.07463734  0.36219498     0.08500
H72         H  0.71079132  0.04148159  0.39210768     0.07300
N73         N  0.74556505  0.09488191  0.55944065    -0.27100
N74         N  0.74552994  0.09091331  0.54459986    -0.34900
C75         C  0.75091411  0.10276211  0.53604655     0.01300
C76         C  0.75478795  0.11484910  0.54582102     0.07300
C77         C  0.75134060  0.10949857  0.56065979    -0.05800
H78         H  0.75285761  0.10223327  0.52365408     0.08000
H79         H  0.75325118  0.11559666  0.57149261     0.09200
Cu80       Cu  0.74192301  0.06872660  0.53627360     0.44200
Cu81       Cu  0.73881253  0.07905343  0.57684351     0.42000
Cu82       Cu  0.74975873  0.04002129  0.56473728     0.43900
N83         N  0.74613064  0.04577920  0.53072789    -0.34400
N84         N  0.75033935  0.03538582  0.54122363    -0.28700
C85         C  0.75322825  0.02174746  0.53411596    -0.04800
C86         C  0.75055331  0.02374823  0.51845148     0.07400
C87         C  0.74606590  0.03906083  0.51663976     0.01200
H88         H  0.75654665  0.01110595  0.53995746     0.08900
H89         H  0.74321153  0.04493809  0.50591156     0.07900
N90         N  0.73995490  0.04507069  0.58602906    -0.35900
N91         N  0.73451993  0.05890272  0.59011001    -0.28100
C92         C  0.72580705  0.05713738  0.60304749    -0.03300
C93         C  0.72618470  0.04153849  0.60741856     0.05300
C94         C  0.73521637  0.03433125  0.59629845     0.03400
H95         H  0.71925243  0.06636485  0.60854591     0.08500
H96         H  0.73703663  0.02192484  0.59495160     0.07300
O97         O  0.76712994  0.97394752  0.50086189    -0.72700
O98         O  0.76810137  0.00919169  0.46988374    -0.73700
O99         O  0.76552739  0.00697011  0.50274528    -0.62300
O100        O  0.77010991  0.97624741  0.46816440    -0.70700
O101        O  0.74438343  0.97380950  0.46713483    -0.70300
O102        O  0.73988361  0.00711246  0.49938546    -0.61500
O103        O  0.74256374  0.00668897  0.46685011    -0.74000
O104        O  0.74131978  0.97424602  0.49966937    -0.72800
Cu105      Cu  0.76865911  0.99165724  0.48549679     1.04600
Cu106      Cu  0.74114954  0.99042843  0.48316893     1.04300
C107        C  0.75391669  0.96870794  0.50521214     0.93500
C108        C  0.75536876  0.01327134  0.46335354     0.92600
C109        C  0.75204976  0.01205464  0.50630177     0.84800
C110        C  0.75795123  0.96990911  0.46252958     0.91000
N111        N  0.92542446  0.72292943  0.37953096    -0.27100
N112        N  0.93512746  0.71511536  0.38855796    -0.34900
C113        C  0.94247358  0.70426934  0.38019395     0.01300
C114        C  0.93746883  0.70528026  0.36505427     0.07300
C115        C  0.92664543  0.71730048  0.36491017    -0.05800
H116        H  0.95165615  0.69688528  0.38460794     0.08000
H117        H  0.92038455  0.72177517  0.35496169     0.09200
Cu118      Cu  0.94193747  0.72134494  0.41056882     0.44200
Cu119      Cu  0.91192315  0.74117300  0.38825875     0.42000
Cu120      Cu  0.93326685  0.75969720  0.42013952     0.43900
N121        N  0.95469269  0.73341674  0.42679375    -0.34400
N122        N  0.95211054  0.74829164  0.42963632    -0.28700
C123        C  0.96275785  0.75348594  0.43982523    -0.04800
C124        C  0.97248059  0.74119165  0.44351167     0.07400
C125        C  0.96703521  0.72862832  0.43508330     0.01200
H126        H  0.96310239  0.76516686  0.44452103     0.08900
H127        H  0.97173235  0.71693508  0.43489745     0.07900
N128        N  0.91072465  0.76506833  0.41390465    -0.35900
N129        N  0.90245839  0.75802544  0.40300779    -0.28100
C130        C  0.88748085  0.76257833  0.40438133    -0.03300
C131        C  0.88647493  0.77315365  0.41653467     0.05300
C132        C  0.90140124  0.77430910  0.42227834     0.03400
H133        H  0.87797098  0.75805997  0.39751073     0.08500
H134        H  0.90503343  0.78037523  0.43269753     0.07300
N135        N  0.92980269  0.72352497  0.57462497    -0.27100
N136        N  0.93900090  0.71591292  0.56496008    -0.34900
C137        C  0.94752421  0.70556062  0.57287319     0.01300
C138        C  0.94367001  0.70661575  0.58836071     0.07300
C139        C  0.93247918  0.71826745  0.58916166    -0.05800
H140        H  0.95684428  0.69870856  0.56786770     0.08000
H141        H  0.92709836  0.72288816  0.59952581     0.09200
Cu142      Cu  0.94340657  0.72255386  0.54252012     0.44200
Cu143      Cu  0.91536117  0.74141028  0.56673773     0.42000
Cu144      Cu  0.93594750  0.76219539  0.53578593     0.43900
N145        N  0.95522560  0.73519149  0.52613096    -0.34400
N146        N  0.95342183  0.75034992  0.52433348    -0.28700
C147        C  0.96379746  0.75549102  0.51383205    -0.04800
C148        C  0.97251580  0.74284742  0.50894557     0.07400
C149        C  0.96675781  0.73019538  0.51693920     0.01200
H150        H  0.96475650  0.76741975  0.50991932     0.08900
H151        H  0.97083363  0.71828818  0.51636295     0.07900
N152        N  0.91322731  0.76641966  0.54230462    -0.35900
N153        N  0.90513190  0.75826411  0.55251516    -0.28100
C154        C  0.88991379  0.76185546  0.55083959    -0.03300
C155        C  0.88855545  0.77290008  0.53914711     0.05300
C156        C  0.90355937  0.77552387  0.53417261     0.03400
H157        H  0.88053940  0.75645349  0.55726594     0.08500
H158        H  0.90707082  0.78260609  0.52440023     0.07300
N159        N  0.08221618  0.71169213  0.37808356    -0.27100
N160        N  0.07135761  0.70624210  0.38745458    -0.34900
C161        C  0.06179549  0.69689335  0.37954580     0.01300
C162        C  0.06658962  0.69639880  0.36432452     0.07300
C163        C  0.07961969  0.70596841  0.36367373    -0.05800
H164        H  0.05146166  0.69158606  0.38434995     0.08000
H165        H  0.08649356  0.70873148  0.35354081     0.09200
Cu166      Cu  0.06691440  0.71407238  0.40946773     0.44200
Cu167      Cu  0.09899911  0.72722533  0.38636037     0.42000
Cu168      Cu  0.08148735  0.75068906  0.41809633     0.43900
N169        N  0.05690276  0.72800731  0.42599326    -0.34400
N170        N  0.06154691  0.74241111  0.42857114    -0.28700
C171        C  0.05211753  0.74900401  0.43918582    -0.04800
C172        C  0.04108613  0.73805195  0.44338744     0.07400
C173        C  0.04447612  0.72490416  0.43482442     0.01200
H174        H  0.05347602  0.76064040  0.44380640     0.08900
H175        H  0.03829752  0.71393562  0.43488651     0.07900
N176        N  0.10453733  0.75142937  0.41131800    -0.35900
N177        N  0.11132005  0.74255398  0.40070404    -0.28100
C178        C  0.12686072  0.74479317  0.40150566    -0.03300
C179        C  0.12976857  0.75569279  0.41302440     0.05300
C180        C  0.11540611  0.75961507  0.41888809     0.03400
H181        H  0.13535808  0.73883902  0.39438081     0.08500
H182        H  0.11307193  0.76735727  0.42852120     0.07300
N183        N  0.08464942  0.72023483  0.57619782    -0.27100
N184        N  0.07372513  0.71359016  0.56765374    -0.34900
C185        C  0.06540981  0.70383289  0.57642870     0.01300
C186        C  0.07117790  0.70422074  0.59132194     0.07300
C187        C  0.08331176  0.71490517  0.59091591    -0.05800
H188        H  0.05512068  0.69774545  0.57247389     0.08000
H189        H  0.09033833  0.71875643  0.60059928     0.09200
Cu190      Cu  0.06739924  0.72012104  0.54560295     0.44200
Cu191      Cu  0.09986505  0.73671682  0.56664372     0.42000
Cu192      Cu  0.07997975  0.75701742  0.53465600     0.43900
N193        N  0.05666884  0.73239187  0.52814418    -0.34400
N194        N  0.06065246  0.74681245  0.52470592    -0.28700
C195        C  0.05113628  0.75221474  0.51353387    -0.04800
C196        C  0.04072139  0.74050961  0.50982595     0.07400
C197        C  0.04455691  0.72810685  0.51928498     0.01200
H198        H  0.05202123  0.76358739  0.50822783     0.08900
H199        H  0.03890846  0.71687165  0.51979642     0.07900
N200        N  0.10304770  0.76012708  0.54062643    -0.35900
N201        N  0.11079626  0.75223774  0.55133955    -0.28100
C202        C  0.12615321  0.75512950  0.54954022    -0.03300
C203        C  0.12794756  0.76553153  0.53733631     0.05300
C204        C  0.11308012  0.76834619  0.53202841     0.03400
H205        H  0.13531041  0.74968502  0.55621894     0.08500
H206        H  0.10987448  0.77494162  0.52182337     0.07300
O207        O  0.02398487  0.75382778  0.49237626    -0.72700
O208        O  0.99089393  0.75406172  0.45952375    -0.73700
O209        O  0.99077128  0.75510697  0.49220707    -0.62300
O210        O  0.02418482  0.75276967  0.45963338    -0.70700
O211        O  0.02286928  0.72693554  0.46048789    -0.70300
O212        O  0.98993807  0.72924423  0.49277277    -0.61500
O213        O  0.99012983  0.72819727  0.46012922    -0.74000
O214        O  0.02268636  0.72799551  0.49325825    -0.72800
Cu215      Cu  0.00750653  0.75488058  0.47589551     1.04600
Cu216      Cu  0.00639241  0.72721189  0.47668605     1.04300
C217        C  0.02854175  0.74082185  0.49795482     0.93500
C218        C  0.98517115  0.74116299  0.45483236     0.92600
C219        C  0.98501847  0.74245345  0.49746504     0.84800
C220        C  0.02880091  0.73939232  0.45503244     0.91000
N221        N  0.26026668  0.87204874  0.40647581    -0.27100
N222        N  0.26177276  0.87586607  0.42127417    -0.34900
C223        C  0.25793216  0.86358935  0.43012936     0.01300
C224        C  0.25356407  0.85139298  0.42059050     0.07300
C225        C  0.25504310  0.85724217  0.40561411    -0.05800
H226        H  0.25662217  0.86410379  0.44261578     0.08000
H227        H  0.25156794  0.85152365  0.39497581     0.09200
Cu228      Cu  0.26426765  0.89857295  0.42917564     0.44200
Cu229      Cu  0.26376066  0.88822075  0.38860444     0.42000
Cu230      Cu  0.25235506  0.92677844  0.40109227     0.43900
N231        N  0.25948009  0.92162528  0.43469577    -0.34400
N232        N  0.25366237  0.93156625  0.42451359    -0.28700
C233        C  0.25083513  0.94523002  0.43159981    -0.04800
C234        C  0.25526229  0.94382185  0.44691972     0.07400
C235        C  0.26071491  0.92876606  0.44855024     0.01200
H236        H  0.24640837  0.95554052  0.42590377     0.08900
H237        H  0.26497890  0.92333064  0.45904717     0.07900
N238        N  0.26227248  0.92218682  0.37979546    -0.35900
N239        N  0.26772391  0.90841863  0.37554400    -0.28100
C240        C  0.27704052  0.91040299  0.36308694    -0.03300
C241        C  0.27719478  0.92612745  0.35931377     0.05300
C242        C  0.26765910  0.93315563  0.37010919     0.03400
H243        H  0.28378641  0.90124454  0.35767892     0.08500
H244        H  0.26599046  0.94554031  0.37172602     0.07300
N245        N  0.25588032  0.90310765  0.58474020    -0.27100
N246        N  0.25185103  0.91745110  0.58082633    -0.34900
C247        C  0.25675015  0.92739694  0.59182623     0.01300
C248        C  0.26437340  0.91907178  0.60322862     0.07300
C249        C  0.26371842  0.90368022  0.59831689    -0.05800
H250        H  0.25658513  0.93993626  0.59061925     0.08000
H251        H  0.26977124  0.89389802  0.60343944     0.09200
Cu252      Cu  0.24538732  0.92400263  0.55863356     0.44200
Cu253      Cu  0.25348214  0.88419450  0.56954395     0.42000
Cu254      Cu  0.26126427  0.89736304  0.53074993     0.43900
N255        N  0.24854425  0.92963925  0.53549893    -0.34400
N256        N  0.25568676  0.92025877  0.52562616    -0.28700
C257        C  0.25759326  0.92771337  0.51204661    -0.04800
C258        C  0.25115496  0.94237813  0.51343545     0.07400
C259        C  0.24554037  0.94328205  0.52841897     0.01200
H260        H  0.26314218  0.92278471  0.50190771     0.08900
H261        H  0.24028694  0.95329196  0.53395729     0.07900
N262        N  0.25751108  0.87421855  0.53625451    -0.35900
N263        N  0.25309985  0.86945320  0.55015557    -0.28100
C264        C  0.24708705  0.85500416  0.54879158    -0.03300
C265        C  0.24811808  0.85037398  0.53335725     0.05300
C266        C  0.25480445  0.86288893  0.52583918     0.03400
H267        H  0.24117566  0.84888212  0.55802836     0.08500
H268        H  0.25559430  0.86447532  0.51339179     0.07300
N269        N  0.23361105  0.08156260  0.40810483    -0.27100
N270        N  0.22605330  0.07190387  0.41735211    -0.34900
C271        C  0.21436974  0.07952579  0.42432456     0.01300
C272        C  0.21448084  0.09485004  0.41947174     0.07300
C273        C  0.22698494  0.09580739  0.40926908    -0.05800
H274        H  0.20727465  0.07461163  0.43345589     0.08000
H275        H  0.23132002  0.10619497  0.40366806     0.09200
Cu276      Cu  0.23395658  0.05008826  0.42372056     0.44200
Cu277      Cu  0.25327745  0.07432607  0.39559972     0.42000
Cu278      Cu  0.27400404  0.04379715  0.41685197     0.43900
N279        N  0.24635130  0.03242637  0.43436690    -0.34400
N280        N  0.26151967  0.03073281  0.43266944    -0.28700
C281        C  0.26638449  0.01876151  0.44151330    -0.04800
C282        C  0.25358362  0.01263457  0.44906899     0.07400
C283        C  0.24109246  0.02159217  0.44430319     0.01200
H284        H  0.27826068  0.01465425  0.44215000     0.08900
H285        H  0.22911288  0.02046478  0.44793717     0.07900
N286        N  0.27997786  0.05135554  0.39488786    -0.35900
N287        N  0.27185838  0.06135960  0.38644394    -0.28100
C288        C  0.27662195  0.06022463  0.37153211    -0.03300
C289        C  0.28840114  0.04916801  0.37076223     0.05300
C290        C  0.29023142  0.04394070  0.38577255     0.03400
H291        H  0.27141860  0.06641124  0.36189055     0.08500
H292        H  0.29745999  0.03433376  0.38952378     0.07300
N293        N  0.26425304  0.05735271  0.57884290    -0.27100
N294        N  0.27314702  0.04921434  0.56932483    -0.34900
C295        C  0.28425991  0.04192847  0.57746951     0.01300
C296        C  0.28231170  0.04532930  0.59300470     0.07300
C297        C  0.26941744  0.05513718  0.59348429    -0.05800
H298        H  0.29170593  0.03295841  0.57267640     0.08000
H299        H  0.26346833  0.05921040  0.60376884     0.09200
Cu300      Cu  0.26644777  0.04252138  0.54739897     0.44200
Cu301      Cu  0.24403378  0.06838553  0.57091112     0.42000
Cu302      Cu  0.22538075  0.04329514  0.54258012     0.43900
N303        N  0.25487795  0.02833443  0.53196099    -0.34400
N304        N  0.23956261  0.02788518  0.53088257    -0.28700
C305        C  0.23550515  0.01704193  0.52039028    -0.04800
C306        C  0.24896862  0.01029531  0.51474646     0.07400
C307        C  0.26103337  0.01768959  0.52232670     0.01200
H308        H  0.22368360  0.01449401  0.51692650     0.08900
H309        H  0.27334675  0.01550848  0.52097745     0.07900
N310        N  0.21791286  0.06550888  0.54769246    -0.35900
N311        N  0.22533325  0.07532357  0.55693077    -0.28100
C312        C  0.22003012  0.08985679  0.55408572    -0.03300
C313        C  0.20868097  0.08898327  0.54262717     0.05300
C314        C  0.20759801  0.07337014  0.53902839     0.03400
H315        H  0.22462931  0.10031345  0.55938595     0.08500
H316        H  0.20094484  0.06830276  0.52964735     0.07300
O317        O  0.24098503  0.96091947  0.46303232    -0.72700
O318        O  0.23779026  0.99273862  0.49679644    -0.73700
O319        O  0.24012991  0.99399737  0.46426921    -0.62300
O320        O  0.23876993  0.95984208  0.49605784    -0.70700
O321        O  0.26456977  0.96036665  0.49766607    -0.70300
O322        O  0.26592751  0.99421552  0.46561624    -0.61500
O323        O  0.26357104  0.99348843  0.49842754    -0.74000
O324        O  0.26675587  0.96095295  0.46513049    -0.72800
Cu325      Cu  0.23851958  0.97681857  0.47995215     1.04600
Cu326      Cu  0.26612022  0.97728746  0.48176566     1.04300
C327        C  0.25430113  0.95580146  0.45891256     0.93500
C328        C  0.25018298  0.99824145  0.50280536     0.92600
C329        C  0.25322263  0.99962318  0.46010577     0.84800
C330        C  0.25148586  0.95479043  0.50186045     0.91000
N331        N  0.40531988  0.90713742  0.25197067    -0.27100
N332        N  0.41455026  0.91597862  0.26054649    -0.34900
C333        C  0.40596896  0.92413735  0.27068294     0.01300
C334        C  0.39049934  0.92062014  0.26836492     0.07300
C335        C  0.39044518  0.90986088  0.25629297    -0.05800
H336        H  0.41051185  0.93337665  0.27795459     0.08000
H337        H  0.38034481  0.90511527  0.25050276     0.09200
Cu338      Cu  0.43713431  0.92175518  0.25489470     0.44200
Cu339      Cu  0.41380422  0.89361313  0.23346595     0.42000
Cu340      Cu  0.44347865  0.91595403  0.21472231     0.43900
N341        N  0.45340875  0.93428343  0.24249817    -0.34400
N342        N  0.45488934  0.93279201  0.22731739    -0.28700
C343        C  0.46522933  0.94324546  0.22212609    -0.04800
C344        C  0.47045357  0.95177616  0.23467042     0.07400
C345        C  0.46276241  0.94581755  0.24743961     0.01200
H346        H  0.46873313  0.94446284  0.21013533     0.08900
H347        H  0.46360153  0.94979061  0.25932731     0.07900
N348        N  0.43727379  0.89394710  0.20766575    -0.35900
N349        N  0.42732646  0.88491776  0.21509632    -0.28100
C350        C  0.42910235  0.87018208  0.20982722    -0.03300
C351        C  0.44052560  0.87014770  0.19837177     0.05300
C352        C  0.44537507  0.88543454  0.19745035     0.03400
H353        H  0.42323389  0.86013571  0.21459125     0.08500
H354        H  0.45534077  0.88977581  0.19110674     0.07300
N355        N  0.58115401  0.88885270  0.21572011    -0.27100
N356        N  0.57162853  0.89782948  0.20763891    -0.34900
C357        C  0.56307810  0.88900703  0.19805317     0.01300
C358        C  0.56719966  0.87361692  0.20011916     0.07300
C359        C  0.57864676  0.87388965  0.21153724    -0.05800
H360        H  0.55335530  0.89335875  0.19132535     0.08000
H361        H  0.58412295  0.86392645  0.21693912     0.09200
Cu362      Cu  0.56631618  0.92053907  0.21316865     0.44200
Cu363      Cu  0.59533083  0.89797330  0.23333945     0.42000
Cu364      Cu  0.57289642  0.92763687  0.25300804     0.43900
N365        N  0.55433722  0.93725600  0.22545535    -0.34400
N366        N  0.55595961  0.93903000  0.24059060    -0.28700
C367        C  0.54579691  0.94977871  0.24562223    -0.04800
C368        C  0.53733468  0.95490734  0.23298655     0.07400
C369        C  0.54302107  0.94676352  0.22037696     0.01200
H370        H  0.54474924  0.95362843  0.25753093     0.08900
H371        H  0.53901294  0.94741479  0.20849229     0.07900
N372        N  0.59575146  0.92285006  0.25797611    -0.35900
N373        N  0.60460462  0.91288422  0.25027374    -0.28100
C374        C  0.61959334  0.91547237  0.25425945    -0.03300
C375        C  0.61991829  0.92756763  0.26494988     0.05300
C376        C  0.60466407  0.93186074  0.26702953     0.03400
H377        H  0.62950470  0.90948872  0.24927970     0.08500
H378        H  0.60042950  0.94159711  0.27380839     0.07300
N379        N  0.40788335  0.06955212  0.25631256    -0.27100
N380        N  0.41721418  0.06005125  0.26400090    -0.34900
C381        C  0.40911954  0.05250063  0.27494867     0.01300
C382        C  0.39375745  0.05706608  0.27409848     0.07300
C383        C  0.39334032  0.06785800  0.26202355    -0.05800
H384        H  0.41361237  0.04268826  0.28146555     0.08000
H385        H  0.38305719  0.07304767  0.25695870     0.09200
Cu386      Cu  0.43822694  0.05238389  0.25552605     0.44200
Cu387      Cu  0.41588961  0.08215448  0.23692166     0.42000
Cu388      Cu  0.44262460  0.05809505  0.21483657     0.43900
N389        N  0.45241064  0.03872383  0.24187555    -0.34400
N390        N  0.45329530  0.04012199  0.22663650    -0.28700
C391        C  0.46304012  0.02920757  0.22107850    -0.04800
C392        C  0.46842533  0.02053296  0.23348543     0.07400
C393        C  0.46147035  0.02685932  0.24647610     0.01200
H394        H  0.46637303  0.02806048  0.20902897     0.08900
H395        H  0.46297541  0.02322317  0.25839840     0.07900
N396        N  0.43782117  0.08102470  0.20955298    -0.35900
N397        N  0.42917275  0.09045956  0.21811052    -0.28100
C398        C  0.43148958  0.10523644  0.21314388    -0.03300
C399        C  0.44188759  0.10484935  0.20079244     0.05300
C400        C  0.44551748  0.08933360  0.19886568     0.03400
H401        H  0.42629973  0.11548117  0.21832505     0.08500
H402        H  0.45400419  0.08453299  0.19092751     0.07300
N403        N  0.59997464  0.06551130  0.24775176    -0.27100
N404        N  0.58980400  0.05753933  0.25602868    -0.34900
C405        C  0.59721823  0.04939554  0.26700602     0.01300
C406        C  0.61299352  0.05203207  0.26574237     0.07300
C407        C  0.61436908  0.06241889  0.25334928    -0.05800
H408        H  0.59158375  0.04100291  0.27448162     0.08000
H409        H  0.62498214  0.06697278  0.24842661     0.09200
Cu410      Cu  0.56722352  0.05328426  0.24967811     0.44200
Cu411      Cu  0.59282012  0.07832644  0.22816896     0.42000
Cu412      Cu  0.56463017  0.05371303  0.20898203     0.43900
N413        N  0.55146962  0.03989987  0.23776089    -0.34400
N414        N  0.55121850  0.03925984  0.22245928    -0.28700
C415        C  0.54078299  0.02855995  0.21793689    -0.04800
C416        C  0.53436136  0.02206213  0.23111568     0.07400
C417        C  0.54137336  0.02948321  0.24348945     0.01200
H418        H  0.53816716  0.02568048  0.20599220     0.08900
H419        H  0.53960581  0.02721148  0.25570432     0.07900
N420        N  0.57058832  0.07553511  0.20131937    -0.35900
N421        N  0.57956519  0.08547720  0.20887178    -0.28100
C422        C  0.57703186  0.09987566  0.20298142    -0.03300
C423        C  0.56601058  0.09873113  0.19113440     0.05300
C424        C  0.56242586  0.08309144  0.19045240     0.03400
H425        H  0.58227236  0.11042053  0.20746617     0.08500
H426        H  0.55325648  0.07780011  0.18366449     0.07300
O427        O  0.48498721  0.00281851  0.22029438    -0.72700
O428        O  0.51894389  0.97088988  0.22014678    -0.73700
O429        O  0.48621161  0.96972587  0.22114276    -0.62300
O430        O  0.51767744  0.00374893  0.21923045    -0.70700
O431        O  0.51833806  0.00456844  0.24501040    -0.70300
O432        O  0.48693638  0.97023600  0.24692200    -0.61500
O433        O  0.51982699  0.97173536  0.24591661    -0.74000
O434        O  0.48562785  0.00318585  0.24607990    -0.72800
Cu435      Cu  0.50189911  0.98675176  0.21929793     1.04600
Cu436      Cu  0.50269300  0.98744148  0.24689446     1.04300
C437        C  0.48014134  0.00818554  0.23324561     0.93500
C438        C  0.52478607  0.96638280  0.23301276     0.92600
C439        C  0.48170339  0.96452942  0.23426414     0.84800
C440        C  0.52291618  0.00955088  0.23182452     0.91000
N441        N  0.41462837  0.70016660  0.91464307    -0.27100
N442        N  0.42434177  0.69324899  0.92433688    -0.34900
C443        C  0.41650353  0.68316820  0.93321591     0.01300
C444        C  0.40097310  0.68375733  0.92920497     0.07300
C445        C  0.40015789  0.69468089  0.91730873    -0.05800
H446        H  0.42155283  0.67685265  0.94282950     0.08000
H447        H  0.38981414  0.69872428  0.91138030     0.09200
Cu448      Cu  0.44659244  0.70059506  0.92901508     0.44200
Cu449      Cu  0.42197391  0.71795528  0.89982414     0.42000
Cu450      Cu  0.45114918  0.74044966  0.92076603     0.43900
N451        N  0.46220696  0.71438971  0.94072095    -0.34400
N452        N  0.46296891  0.72959704  0.93862183    -0.28700
C453        C  0.47297830  0.73568731  0.94896866    -0.04800
C454        C  0.47873815  0.72362844  0.95793538     0.07400
C455        C  0.47171620  0.71029408  0.95238879     0.01200
H456        H  0.47606422  0.74787795  0.94967845     0.08900
H457        H  0.47313483  0.69855720  0.95670776     0.07900
N458        N  0.44414023  0.74497559  0.89827144    -0.35900
N459        N  0.43445626  0.73634249  0.88999274    -0.28100
C460        C  0.43484246  0.74128095  0.87509679    -0.03300
C461        C  0.44512720  0.75370211  0.87417745     0.05300
C462        C  0.45067897  0.75568582  0.88907443     0.03400
H463        H  0.42823050  0.73618616  0.86569243     0.08500
H464        H  0.45947648  0.76385900  0.89281348     0.07300
N465        N  0.61076785  0.73067663  0.91257843    -0.27100
N466        N  0.60320597  0.72071441  0.92150646    -0.34900
C467        C  0.61339036  0.71171141  0.92908431     0.01300
C468        C  0.62820246  0.71620907  0.92505467     0.07300
C469        C  0.62621821  0.72834714  0.91455482    -0.05800
H470        H  0.61023903  0.70313836  0.93770980     0.08000
H471        H  0.63525886  0.73505477  0.90895981     0.09200
Cu472      Cu  0.57998111  0.72182054  0.92695997     0.44200
Cu473      Cu  0.59877843  0.74708133  0.89904042     0.42000
Cu474      Cu  0.56398944  0.75878587  0.92019956     0.43900
N475        N  0.56151963  0.73016962  0.93962342    -0.34400
N476        N  0.55625657  0.74451205  0.93791764    -0.28700
C477        C  0.54521234  0.74720556  0.94862502    -0.04800
C478        C  0.54352306  0.73385074  0.95744803     0.07400
C479        C  0.55401312  0.72326932  0.95142536     0.01200
H480        H  0.53870761  0.75794045  0.94969847     0.08900
H481        H  0.55621786  0.71154409  0.95545870     0.07900
N482        N  0.56941962  0.76637509  0.89807020    -0.35900
N483        N  0.58132513  0.76140242  0.88968686    -0.28100
C484        C  0.57918984  0.76606283  0.87484050    -0.03300
C485        C  0.56548293  0.77461471  0.87407321     0.05300
C486        C  0.55968887  0.77450762  0.88899079     0.03400
H487        H  0.58667685  0.76294772  0.86525023     0.08500
H488        H  0.54847111  0.77887054  0.89270579     0.07300
N489        N  0.41717158  0.69335018  0.07244287    -0.27100
N490        N  0.42531333  0.68702729  0.06100951    -0.34900
C491        C  0.41581357  0.67860827  0.05201979     0.01300
C492        C  0.40091487  0.67984108  0.05771824     0.07300
C493        C  0.40208560  0.68928340  0.07071654    -0.05800
H494        H  0.41928520  0.67304727  0.04130157     0.08000
H495        H  0.39266543  0.69335326  0.07799605     0.09200
Cu496      Cu  0.44736998  0.69335257  0.05387220     0.44200
Cu497      Cu  0.42674510  0.70896756  0.08831002     0.42000
Cu498      Cu  0.44988206  0.73235344  0.06266268     0.43900
N499        N  0.46216276  0.70789769  0.04173945    -0.34400
N500        N  0.46197205  0.72302069  0.04439436    -0.28700
C501        C  0.47195611  0.73013833  0.03478153    -0.04800
C502        C  0.47878147  0.71889583  0.02556667     0.07400
C503        C  0.47230239  0.70488101  0.03022938     0.01200
H504        H  0.47439688  0.74249308  0.03483882     0.08900
H505        H  0.47471212  0.69342198  0.02558502     0.07900
N506        N  0.44720324  0.73674842  0.08588772    -0.35900
N507        N  0.43985627  0.72782049  0.09597568    -0.28100
C508        C  0.44265216  0.73332173  0.11042235    -0.03300
C509        C  0.45211411  0.74636423  0.10907777     0.05300
C510        C  0.45469288  0.74808302  0.09340409     0.03400
H511        H  0.43801580  0.72836386  0.12099419     0.08500
H512        H  0.46194080  0.75671265  0.08783918     0.07300
N513        N  0.61897338  0.73581584  0.06021603    -0.27100
N514        N  0.61385280  0.73860560  0.04601196    -0.34900
C515        C  0.62476323  0.73449515  0.03567093     0.01300
C516        C  0.63743106  0.72855939  0.04353429     0.07300
C517        C  0.63331640  0.72941793  0.05914640    -0.05800
H518        H  0.62284179  0.73406446  0.02325229     0.08000
H519        H  0.63983841  0.72483843  0.06886799     0.09200
Cu520      Cu  0.59077896  0.74222025  0.04052199     0.44200
Cu521      Cu  0.60462705  0.73928082  0.07971081     0.42000
Cu522      Cu  0.56550950  0.72752050  0.06973559     0.43900
N523        N  0.56811758  0.73561341  0.03613528    -0.34400
N524        N  0.55923238  0.72882268  0.04664301    -0.28700
C525        C  0.54558203  0.72491400  0.04008559    -0.04800
C526        C  0.54599377  0.72956235  0.02476365     0.07400
C527        C  0.56036803  0.73632932  0.02260924     0.01200
H528        H  0.53593032  0.71963457  0.04614596     0.08900
H529        H  0.56492079  0.74124627  0.01199466     0.07900
N530        N  0.57141626  0.73718225  0.09086709    -0.35900
N531        N  0.58529772  0.74286630  0.09428305    -0.28100
C532        C  0.58393183  0.75190318  0.10708012    -0.03300
C533        C  0.56849681  0.75163555  0.11194301     0.05300
C534        C  0.56103738  0.74210457  0.10140751     0.03400
H535        H  0.59329576  0.75869265  0.11205214     0.08500
H536        H  0.54864045  0.74013311  0.10058402     0.07300
O537        O  0.49319631  0.73778061  0.97660784    -0.72700
O538        O  0.52663010  0.74065701  0.00879636    -0.73700
O539        O  0.52538187  0.74287471  0.97606237    -0.62300
O540        O  0.49398102  0.73537068  0.00953777    -0.70700
O541        O  0.49745634  0.70981284  0.00742396    -0.70300
O542        O  0.52988753  0.71741205  0.97487641    -0.61500
O543        O  0.53000994  0.71499558  0.00779493    -0.74000
O544        O  0.49736097  0.71229585  0.97472642    -0.72800
Cu545      Cu  0.50964210  0.74006087  0.99287913     1.04600
Cu546      Cu  0.51383167  0.71272656  0.99116160     1.04300
C547        C  0.49025372  0.72461619  0.97038358     0.93500
C548        C  0.53357691  0.72832241  0.01330986     0.92600
C549        C  0.53248230  0.73126197  0.97011266     0.84800
C550        C  0.49062349  0.72146066  0.01361442     0.91000
N551        N  0.42183745  0.88221447  0.75358624    -0.27100
N552        N  0.43496781  0.88852539  0.75857979    -0.34900
C553        C  0.44278699  0.87814672  0.76719304     0.01300
C554        C  0.43437787  0.86452821  0.76776440     0.07300
C555        C  0.42112844  0.86740750  0.75895569    -0.05800
H556        H  0.45442995  0.87993682  0.77161881     0.08000
H557        H  0.41222399  0.85908255  0.75584453     0.09200
Cu558      Cu  0.44461911  0.90900420  0.75066283     0.44200
Cu559      Cu  0.40708070  0.89371450  0.73769602     0.42000
Cu560      Cu  0.43092186  0.91986476  0.71414437     0.43900
N561        N  0.45631893  0.92481954  0.73699136    -0.34400
N562        N  0.45175229  0.92811304  0.72274431    -0.28700
C563        C  0.46149982  0.93866268  0.71655436    -0.04800
C564        C  0.47265064  0.94220941  0.72757674     0.07400
C565        C  0.46903623  0.93322585  0.74038426     0.01200
H566        H  0.46000630  0.94403865  0.70530352     0.08900
H567        H  0.47497957  0.93307155  0.75145318     0.07900
N568        N  0.40741032  0.91631278  0.71078556    -0.35900
N569        N  0.39819277  0.90779569  0.71966879    -0.28100
C570        C  0.38331058  0.91027295  0.71510985    -0.03300
C571        C  0.38337461  0.92057349  0.70262158     0.05300
C572        C  0.39884337  0.92414104  0.70038993     0.03400
H573        H  0.37321626  0.90514132  0.72055298     0.08500
H574        H  0.40353285  0.93262225  0.69236728     0.07300
N575        N  0.60194925  0.89474554  0.71383917    -0.27100
N576        N  0.59271672  0.90289280  0.70464161    -0.34900
C577        C  0.60131557  0.91110528  0.69471526     0.01300
C578        C  0.61685780  0.90845420  0.69777563     0.07300
C579        C  0.61688234  0.89789364  0.71003518    -0.05800
H580        H  0.59656906  0.91993666  0.68711935     0.08000
H581        H  0.62688704  0.89353749  0.71631101     0.09200
Cu582      Cu  0.57008511  0.90902292  0.70926042     0.44200
Cu583      Cu  0.59300561  0.88224832  0.73253241     0.42000
Cu584      Cu  0.56540205  0.90845010  0.74972318     0.43900
N585        N  0.55573108  0.92452936  0.72056217    -0.34400
N586        N  0.55499029  0.92495885  0.73585625    -0.28700
C587        C  0.54526256  0.93636236  0.74020025    -0.04800
C588        C  0.53966153  0.94349634  0.72696702     0.07400
C589        C  0.54657835  0.93579073  0.71467277     0.01200
H590        H  0.54201189  0.93882181  0.75207126     0.08900
H591        H  0.54490461  0.93800041  0.70242413     0.07900
N592        N  0.56916883  0.88613478  0.75760377    -0.35900
N593        N  0.57823935  0.87586877  0.75060229    -0.28100
C594        C  0.57488244  0.86155709  0.75611271    -0.03300
C595        C  0.56342589  0.86309423  0.76731893     0.05300
C596        C  0.56010423  0.87879125  0.76790680     0.03400
H597        H  0.57979755  0.85081269  0.75174233     0.08500
H598        H  0.55068721  0.88425849  0.77421423     0.07300
N599        N  0.40279045  0.05329383  0.70853223    -0.27100
N600        N  0.41082375  0.04232992  0.70127716    -0.34900
C601        C  0.40160676  0.03499193  0.69109093     0.01300
C602        C  0.38691974  0.04139165  0.69183547     0.07300
C603        C  0.38798122  0.05288521  0.70319788    -0.05800
H604        H  0.40506276  0.02479084  0.68452750     0.08000
H605        H  0.37860238  0.06004445  0.70756917     0.09200
Cu606      Cu  0.43282533  0.03471614  0.70713635     0.44200
Cu607      Cu  0.41278922  0.06759062  0.72578842     0.42000
Cu608      Cu  0.44771856  0.04959440  0.74188382     0.43900
N609        N  0.45175809  0.02481235  0.71806854    -0.34400
N610        N  0.45673800  0.02991500  0.73163613    -0.28700
C611        C  0.46855648  0.02091510  0.73649629    -0.04800
C612        C  0.47117569  0.00967504  0.72533218     0.07400
C613        C  0.46036607  0.01246278  0.71376791     0.01200
H614        H  0.47501017  0.02269348  0.74712883     0.08900
H615        H  0.45876053  0.00593158  0.70314527     0.07900
N616        N  0.44005811  0.07155474  0.74773317    -0.35900
N617        N  0.42778150  0.07867928  0.74174359    -0.28100
C618        C  0.42763624  0.09354003  0.74700302    -0.03300
C619        C  0.44032247  0.09558124  0.75681610     0.05300
C620        C  0.44785977  0.08144053  0.75693372     0.03400
H621        H  0.41921361  0.10228101  0.74364306     0.08500
H622        H  0.45871082  0.07873318  0.76271153     0.07300
N623        N  0.60681770  0.05338704  0.73042876    -0.27100
N624        N  0.60311859  0.03889452  0.73406964    -0.34900
C625        C  0.61440718  0.02928845  0.72926161     0.01300
C626        C  0.62567123  0.03795897  0.72189853     0.07300
C627        C  0.62051643  0.05325641  0.72280741    -0.05800
H628        H  0.61348972  0.01671551  0.72927319     0.08000
H629        H  0.62574186  0.06334641  0.71739118     0.09200
Cu630      Cu  0.58097333  0.03133387  0.73916095     0.44200
Cu631      Cu  0.59170829  0.07198539  0.73422172     0.42000
Cu632      Cu  0.55216113  0.05838802  0.72881816     0.43900
N633        N  0.55890905  0.02465231  0.73251141    -0.34400
N634        N  0.54848798  0.03471002  0.72738065    -0.28700
C635        C  0.53555177  0.02698345  0.72317611    -0.04800
C636        C  0.53810469  0.01130487  0.72571984     0.07400
C637        C  0.55292103  0.01022994  0.73181286     0.01200
H638        H  0.52482295  0.03243544  0.71950054     0.08900
H639        H  0.55879099  0.99980028  0.73572887     0.07900
N640        N  0.55785588  0.07987865  0.73788871    -0.35900
N641        N  0.57216998  0.08502540  0.74021314    -0.28100
C642        C  0.57145081  0.09833210  0.74853696    -0.03300
C643        C  0.55595000  0.10150039  0.75154435     0.05300
C644        C  0.54772688  0.08960386  0.74466498     0.03400
H645        H  0.58143323  0.10461744  0.75290859     0.08500
H646        H  0.53531391  0.08762229  0.74537354     0.07300
O647        O  0.52177595  0.99360348  0.73853954    -0.72700
O648        O  0.48971616  0.96017721  0.73940095    -0.73700
O649        O  0.52235704  0.96093367  0.73916550    -0.62300
O650        O  0.48897733  0.99327226  0.73849498    -0.70700
O651        O  0.48818509  0.99206104  0.71273682    -0.70300
O652        O  0.52257293  0.96049839  0.71337727    -0.61500
O653        O  0.48943862  0.95921262  0.71362873    -0.74000
O654        O  0.52116708  0.99373454  0.71273791    -0.72800
Cu655      Cu  0.50569416  0.97702211  0.73977350     1.04600
Cu656      Cu  0.50536507  0.97634948  0.71217291     1.04300
C657        C  0.52646253  0.99898016  0.72558805     0.93500
C658        C  0.48454239  0.95438034  0.72677482     0.92600
C659        C  0.52772065  0.95562071  0.72641563     0.84800
C660        C  0.48330089  0.99773238  0.72553028     0.91000
N661        N  0.38429808  0.22676524  0.90710696    -0.27100
N662        N  0.38880170  0.22441388  0.92159030    -0.34900
C663        C  0.37737610  0.22877645  0.93126111     0.01300
C664        C  0.36511507  0.23440519  0.92256602     0.07300
C665        C  0.36994685  0.23308386  0.90726572    -0.05800
H666        H  0.37879051  0.22997735  0.94370047     0.08000
H667        H  0.36413722  0.23780256  0.89716470     0.09200
Cu668      Cu  0.41177383  0.22189584  0.92806790     0.44200
Cu669      Cu  0.39933879  0.22411424  0.88833660     0.42000
Cu670      Cu  0.43711668  0.23793359  0.89913500     0.43900
N671        N  0.43424920  0.22908314  0.93255323    -0.34400
N672        N  0.44298743  0.23633383  0.92222245    -0.28700
C673        C  0.45688377  0.23956519  0.92857166    -0.04800
C674        C  0.45680179  0.23405459  0.94357546     0.07400
C675        C  0.44238054  0.22739432  0.94575932     0.01200
H676        H  0.46666212  0.24442799  0.92236050     0.08900
H677        H  0.43827124  0.22137819  0.95598615     0.07900
N678        N  0.43240514  0.22799836  0.87791615    -0.35900
N679        N  0.41884803  0.22178304  0.87419370    -0.28100
C680        C  0.42077120  0.21275654  0.86152343    -0.03300
C681        C  0.43625292  0.21354638  0.85709136     0.05300
C682        C  0.44321599  0.22333366  0.86770279     0.03400
H683        H  0.41183179  0.20547300  0.85650167     0.08500
H684        H  0.45553894  0.22559283  0.86886000     0.07300
N685        N  0.56972004  0.23053957  0.87120257    -0.27100
N686        N  0.56255735  0.22037589  0.88023354    -0.34900
C687        C  0.55586933  0.20937382  0.87151426     0.01300
C688        C  0.55858086  0.21267474  0.85612164     0.07300
C689        C  0.56741321  0.22625765  0.85624129    -0.05800
H690        H  0.54840633  0.20031997  0.87602607     0.08000
H691        H  0.57145738  0.23273454  0.84626182     0.09200
Cu692      Cu  0.55710228  0.22362652  0.90318922     0.44200
Cu693      Cu  0.58094309  0.25015240  0.88058743     0.42000
Cu694      Cu  0.55822183  0.26325082  0.91337385     0.43900
N695        N  0.54313367  0.23272612  0.92027414    -0.34400
N696        N  0.54288786  0.24777643  0.92338605    -0.28700
C697        C  0.53215515  0.25055100  0.93434058    -0.04800
C698        C  0.52528096  0.23653316  0.93820409     0.07400
C699        C  0.53247777  0.22544636  0.92906410     0.01200
H700        H  0.52981087  0.26185738  0.93937242     0.08900
H701        H  0.53019083  0.21306073  0.92882145     0.07900
N702        N  0.57899773  0.27330136  0.90687900    -0.35900
N703        N  0.58808945  0.26804141  0.89566720    -0.28100
C704        C  0.60217375  0.27487411  0.89712758    -0.03300
C705        C  0.60173204  0.28507631  0.90969546     0.05300
C706        C  0.58683616  0.28366297  0.91551041     0.03400
H707        H  0.61221955  0.27197976  0.89016988     0.08500
H708        H  0.58250123  0.28851688  0.92627972     0.07300
N709        N  0.38848223  0.22775341  0.04483393    -0.27100
N710        N  0.39282597  0.22550283  0.03027606    -0.34900
C711        C  0.38112764  0.22951671  0.02072908     0.01300
C712        C  0.36872975  0.23469021  0.02954672     0.07300
C713        C  0.37387050  0.23351669  0.04481591    -0.05800
H714        H  0.38221230  0.23022195  0.00821992     0.08000
H715        H  0.36780976  0.23751622  0.05506529     0.09200
Cu716      Cu  0.41546543  0.22104170  0.02342187     0.44200
Cu717      Cu  0.40362932  0.22478760  0.06378035     0.42000
Cu718      Cu  0.44322053  0.23180824  0.05225972     0.43900
N719        N  0.43905890  0.22265088  0.01901360    -0.34400
N720        N  0.44909791  0.22768359  0.02949132    -0.28700
C721        C  0.46319999  0.22900092  0.02294949    -0.04800
C722        C  0.46196500  0.22434910  0.00769112     0.07400
C723        C  0.44653435  0.22048889  0.00548401     0.01200
H724        H  0.47348602  0.23325324  0.02879996     0.08900
H725        H  0.44099282  0.21724736  0.99468025     0.07900
N726        N  0.43690012  0.22662792  0.07466579    -0.35900
N727        N  0.42271165  0.22251769  0.07888965    -0.28100
C728        C  0.42362751  0.21543700  0.09286878    -0.03300
C729        C  0.43910255  0.21541116  0.09763133     0.05300
C730        C  0.44705578  0.22264497  0.08579151     0.03400
H731        H  0.41401465  0.20964568  0.09853150     0.08500
H732        H  0.45955752  0.22310724  0.08444394     0.07300
N733        N  0.57770979  0.21208685  0.06707937    -0.27100
N734        N  0.56794145  0.20318799  0.05914040    -0.34900
C735        C  0.56026081  0.19391136  0.06900240     0.01300
C736        C  0.56505042  0.19721665  0.08391650     0.07300
C737        C  0.57614162  0.20882064  0.08233888    -0.05800
H738        H  0.55080080  0.18631100  0.06568359     0.08000
H739        H  0.58211644  0.21489828  0.09159655     0.09200
Cu740      Cu  0.56081668  0.20660447  0.03643505     0.44200
Cu741      Cu  0.59104929  0.22982669  0.05707939     0.42000
Cu742      Cu  0.56599883  0.24644702  0.02926655     0.43900
N743        N  0.54808848  0.21826466  0.01968426    -0.34400
N744        N  0.54959088  0.23346172  0.01801158    -0.28700
C745        C  0.53907799  0.23867142  0.00781209    -0.04800
C746        C  0.53041267  0.22615860  0.00281960     0.07400
C747        C  0.53640374  0.21330025  0.01049422     0.01200
H748        H  0.53775907  0.25072933  0.00442175     0.08900
H749        H  0.53218256  0.20144874  0.00997069     0.07900
N750        N  0.58717727  0.25579527  0.03455048    -0.35900
N751        N  0.59741032  0.24923879  0.04391372    -0.28100
C752        C  0.61115100  0.25666360  0.04220109    -0.03300
C753        C  0.60918678  0.26856402  0.03138780     0.05300
C754        C  0.59386319  0.26747886  0.02679757     0.03400
H755        H  0.62184528  0.25331956  0.04790678     0.08500
H756        H  0.58828339  0.27373486  0.01740820     0.07300
O757        O  0.47607016  0.21934495  0.95626894    -0.72700
O758        O  0.51154372  0.21482949  0.98605326    -0.73700
O759        O  0.47845430  0.21417331  0.98820798    -0.62300
O760        O  0.50911842  0.22026361  0.95363305    -0.70700
O761        O  0.50830607  0.24583626  0.95757145    -0.70300
O762        O  0.47870777  0.23971880  0.99252943    -0.61500
O763        O  0.51135233  0.24049764  0.98942352    -0.74000
O764        O  0.47560386  0.24493890  0.96031658    -0.72800
Cu765      Cu  0.49383218  0.21622193  0.97087400     1.04600
Cu766      Cu  0.49347624  0.24362380  0.97511125     1.04300
C767        C  0.47013522  0.23275013  0.95384927     0.93500
C768        C  0.51712396  0.22710434  0.99229460     0.92600
C769        C  0.47368740  0.22610774  0.99566103     0.84800
C770        C  0.51360527  0.23405031  0.95027815     0.91000
N771        N  0.26522276  0.38007973  0.90585425    -0.27100
N772        N  0.27407726  0.38767998  0.91586697    -0.34900
C773        C  0.28363633  0.37759785  0.92294484     0.01300
C774        C  0.28060811  0.36284971  0.91737088     0.07300
C775        C  0.26875844  0.36479125  0.90661028    -0.05800
H776        H  0.29085308  0.38051256  0.93284832     0.08000
H777        H  0.26246931  0.35568791  0.90061782     0.09200
Cu778      Cu  0.26925678  0.40961126  0.92428875     0.44200
Cu779      Cu  0.24726461  0.39086267  0.89365002     0.42000
Cu780      Cu  0.22949290  0.41942932  0.91848718     0.43900
N781        N  0.25748023  0.42510361  0.93830210    -0.34400
N782        N  0.24243258  0.42782878  0.93682287    -0.28700
C783        C  0.23790734  0.43781984  0.94793988    -0.04800
C784        C  0.25077076  0.44152370  0.95681307     0.07400
C785        C  0.26299234  0.43326622  0.95042235     0.01200
H786        H  0.22628566  0.44251123  0.94906448     0.08900
H787        H  0.27499635  0.43328131  0.95419003     0.07900
N788        N  0.22291572  0.41582838  0.89574719    -0.35900
N789        N  0.23000833  0.40615599  0.88612949    -0.28100
C790        C  0.22521967  0.40924122  0.87153153    -0.03300
C791        C  0.21442685  0.42124680  0.87214722     0.05300
C792        C  0.21332407  0.42509854  0.88766620     0.03400
H793        H  0.22976315  0.40368762  0.86122138     0.08500
H794        H  0.20710968  0.43490942  0.89258031     0.07300
N795        N  0.23935067  0.55182290  0.88981040    -0.27100
N796        N  0.23159210  0.54144846  0.89806565    -0.34900
C797        C  0.22096273  0.53446185  0.88907292     0.01300
C798        C  0.22205814  0.54043498  0.87425749     0.07300
C799        C  0.23391532  0.55144107  0.87506589    -0.05800
H800        H  0.21355802  0.52502805  0.89284313     0.08000
H801        H  0.23832645  0.55851364  0.86565643     0.09200
Cu802      Cu  0.23755966  0.53435295  0.92010358     0.44200
Cu803      Cu  0.25719538  0.56513117  0.89990212     0.42000
Cu804      Cu  0.27688751  0.54176732  0.92932101     0.43900
N805        N  0.24917875  0.52281061  0.93755727    -0.34400
N806        N  0.26419668  0.52465328  0.94015487    -0.28700
C807        C  0.26861143  0.51520000  0.95177583    -0.04800
C808        C  0.25565774  0.50710430  0.95669983     0.07400
C809        C  0.24354555  0.51215419  0.94744381     0.01200
H810        H  0.28022637  0.51465241  0.95658282     0.08900
H811        H  0.23157066  0.50833082  0.94779582     0.07900
N812        N  0.28191104  0.56476120  0.92487949    -0.35900
N813        N  0.27416024  0.57385861  0.91517415    -0.28100
C814        C  0.27844306  0.58877690  0.91783431    -0.03300
C815        C  0.28952737  0.58883735  0.92955990     0.05300
C816        C  0.29136516  0.57345998  0.93370076     0.03400
H817        H  0.27361166  0.59880869  0.91196459     0.08500
H818        H  0.29833637  0.56899472  0.94319792     0.07300
N819        N  0.26288643  0.36987803  0.06110258    -0.27100
N820        N  0.27116246  0.37920585  0.05213701    -0.34900
C821        C  0.27974092  0.37070882  0.04232849     0.01300
C822        C  0.27683224  0.35518696  0.04505383     0.07300
C823        C  0.26593090  0.35499357  0.05695624    -0.05800
H824        H  0.28658746  0.37555872  0.03295620     0.08000
H825        H  0.26030194  0.34486928  0.06184693     0.09200
Cu826      Cu  0.26758214  0.40269416  0.04970039     0.44200
Cu827      Cu  0.24699523  0.37883483  0.07724803     0.42000
Cu828      Cu  0.22911123  0.41222718  0.05821575     0.43900
N829        N  0.25660811  0.42140936  0.03973437    -0.34400
N830        N  0.24170557  0.42430436  0.04193597    -0.28700
C831        C  0.23735418  0.43623007  0.03281216    -0.04800
C832        C  0.25023819  0.44091563  0.02445822     0.07400
C833        C  0.26223456  0.43130152  0.02911023     0.01200
H834        H  0.22575570  0.44109679  0.03233342     0.08900
H835        H  0.27402565  0.43115898  0.02475692     0.07900
N836        N  0.22471598  0.40557326  0.08069255    -0.35900
N837        N  0.23187170  0.39436805  0.08845033    -0.28100
C838        C  0.22832012  0.39589494  0.10369163    -0.03300
C839        C  0.21836663  0.40858407  0.10532613     0.05300
C840        C  0.21639735  0.41427164  0.09051313     0.03400
H841        H  0.23284206  0.38855564  0.11284418     0.08500
H842        H  0.21013378  0.42469848  0.08721744     0.07300
N843        N  0.25293509  0.54544698  0.09626567    -0.27100
N844        N  0.25556174  0.53091544  0.09186653    -0.34900
C845        C  0.24889632  0.52112426  0.10199144     0.01300
C846        C  0.24153328  0.52977682  0.11327885     0.07300
C847        C  0.24422733  0.54520561  0.10930564    -0.05800
H848        H  0.24817850  0.50864267  0.10042504     0.08000
H849        H  0.23951332  0.55542454  0.11495462     0.09200
Cu850      Cu  0.26326970  0.52447601  0.07012802     0.44200
Cu851      Cu  0.25949879  0.56450206  0.08264395     0.42000
Cu852      Cu  0.25250984  0.55354000  0.04289115     0.43900
N853        N  0.25963531  0.51973789  0.04693775    -0.34400
N854        N  0.25403940  0.53024037  0.03721634    -0.28700
C855        C  0.25116338  0.52342153  0.02346351    -0.04800
C856        C  0.25531965  0.50794522  0.02465662     0.07400
C857        C  0.26068610  0.50595407  0.03961974     0.01200
H858        H  0.24681270  0.52936938  0.01328683     0.08900
H859        H  0.26461740  0.49523502  0.04491945     0.07900
N860        N  0.26063401  0.57516329  0.04944462    -0.35900
N861        N  0.26451249  0.57898455  0.06380002    -0.28100
C862        C  0.27304416  0.59216329  0.06334338    -0.03300
C863        C  0.27428447  0.59692230  0.04797696     0.05300
C864        C  0.26630424  0.58580267  0.03958277     0.03400
H865        H  0.27876031  0.59731507  0.07328081     0.08500
H866        H  0.26620996  0.58448657  0.02708763     0.07300
O867        O  0.24145487  0.49132461  0.97404000    -0.72700
O868        O  0.23865765  0.45952365  0.00772703    -0.73700
O869        O  0.24123813  0.49246218  0.00683918    -0.62300
O870        O  0.23896693  0.45875597  0.97476658    -0.70700
O871        O  0.26476883  0.45723216  0.97456515    -0.70300
O872        O  0.26690984  0.48951419  0.00796431    -0.61500
O873        O  0.26436932  0.45686725  0.00726489    -0.74000
O874        O  0.26725834  0.49005498  0.97498230    -0.72800
Cu875      Cu  0.23916139  0.47558539  0.99086733     1.04600
Cu876      Cu  0.26673609  0.47336160  0.99121749     1.04300
C877        C  0.25477593  0.49566165  0.96919126     0.93500
C878        C  0.25109350  0.45304336  0.01263784     0.92600
C879        C  0.25443873  0.49611484  0.01256228     0.84800
C880        C  0.25153313  0.45294633  0.96938579     0.91000
N881        N  0.89891776  0.40942132  0.74534487    -0.27100
N882        N  0.90761058  0.42004194  0.75231589    -0.34900
C883        C  0.89895493  0.42817088  0.76234868     0.01300
C884        C  0.88395812  0.42270136  0.76175240     0.07300
C885        C  0.88418072  0.41085777  0.75071955    -0.05800
H886        H  0.90301397  0.43828729  0.76867917     0.08000
H887        H  0.87432970  0.40426817  0.74650463     0.09200
Cu888      Cu  0.92944317  0.42684844  0.74556654     0.44200
Cu889      Cu  0.90821047  0.39480875  0.72798845     0.42000
Cu890      Cu  0.93926336  0.41587414  0.70788808     0.43900
N891        N  0.94681619  0.43781375  0.73345197    -0.34400
N892        N  0.94998952  0.43430522  0.71888903    -0.28700
C893        C  0.96158536  0.44349598  0.71386099    -0.04800
C894        C  0.96582441  0.45322440  0.72594541     0.07400
C895        C  0.95620802  0.44935844  0.73817138     0.01200
H896        H  0.96679684  0.44283983  0.70246126     0.08900
H897        H  0.95605505  0.45450299  0.74963617     0.07900
N898        N  0.93300801  0.39317758  0.70311901    -0.35900
N899        N  0.92263075  0.38486237  0.71083085    -0.28100
C900        C  0.92428624  0.36976000  0.70660577    -0.03300
C901        C  0.93608562  0.36869145  0.69556434     0.05300
C902        C  0.94127302  0.38380226  0.69382092     0.03400
H903        H  0.91792439  0.36019370  0.71170739     0.08500
H904        H  0.95143142  0.38757795  0.68742543     0.07300
N905        N  0.92490759  0.58574549  0.70150665    -0.27100
N906        N  0.93420825  0.57651876  0.69338979    -0.34900
C907        C  0.94325523  0.58521080  0.68417754     0.01300
C908        C  0.93980919  0.60065049  0.68673864     0.07300
C909        C  0.92814825  0.60067416  0.69781822    -0.05800
H910        H  0.95268115  0.58068396  0.67719298     0.08000
H911        H  0.92292135  0.61075806  0.70328219     0.09200
Cu912      Cu  0.93907548  0.55351793  0.69829908     0.44200
Cu913      Cu  0.91000662  0.57767270  0.71887168     0.42000
Cu914      Cu  0.93452767  0.55154162  0.73873577     0.43900
N915        N  0.95098468  0.53749431  0.71161084    -0.34400
N916        N  0.94981316  0.53765710  0.72687919    -0.28700
C917        C  0.95943872  0.52701333  0.73292811    -0.04800
C918        C  0.96721766  0.51989128  0.72088109     0.07400
C919        C  0.96163399  0.52676976  0.70745394     0.01200
H920        H  0.96066126  0.52465867  0.74519926     0.08900
H921        H  0.96525782  0.52443702  0.69566258     0.07900
N922        N  0.91287452  0.55738833  0.74656382    -0.35900
N923        N  0.90268494  0.56561879  0.73855028    -0.28100
C924        C  0.88846793  0.56352358  0.74490015    -0.03300
C925        C  0.89012283  0.55367186  0.75760967     0.05300
C926        C  0.90572212  0.55015461  0.75826438     0.03400
H927        H  0.87775063  0.56829756  0.74031205     0.08500
H928        H  0.91123423  0.54172415  0.76579587     0.07300
N929        N  0.10249039  0.40995238  0.74749633    -0.27100
N930        N  0.09910396  0.42475494  0.74486033    -0.34900
C931        C  0.11069399  0.43374048  0.75012033     0.01300
C932        C  0.12192586  0.42429890  0.75656920     0.07300
C933        C  0.11635499  0.40922896  0.75486050    -0.05800
H934        H  0.11043761  0.44633893  0.75027424     0.08000
H935        H  0.12170531  0.39863387  0.75906453     0.09200
Cu936      Cu  0.07786878  0.43307562  0.73738776     0.44200
Cu937      Cu  0.08732441  0.39187363  0.74153987     0.42000
Cu938      Cu  0.04737832  0.40567027  0.73988237     0.43900
N939        N  0.05479094  0.43935369  0.73548316    -0.34400
N940        N  0.04341234  0.42919346  0.73726154    -0.28700
C941        C  0.02970012  0.43655437  0.73580878    -0.04800
C942        C  0.03269623  0.45205108  0.73293165     0.07400
C943        C  0.04867042  0.45352207  0.73282807     0.01200
H944        H  0.01844575  0.43098711  0.73648380     0.08900
H945        H  0.05532928  0.46404915  0.73105640     0.07900
N946        N  0.05399192  0.38312106  0.73496414    -0.35900
N947        N  0.06854102  0.37811747  0.73445674    -0.28100
C948        C  0.06873290  0.36396444  0.72761220    -0.03300
C949        C  0.05355041  0.35991859  0.72394847     0.05300
C950        C  0.04459518  0.37231861  0.72876499     0.03400
H951        H  0.07915687  0.35749498  0.72480183     0.08500
H952        H  0.03229449  0.37396734  0.72665558     0.07300
N953        N  0.08061629  0.58283329  0.70791538    -0.27100
N954        N  0.07149920  0.57355773  0.69969883    -0.34900
C955        C  0.06375808  0.58194637  0.68907523     0.01300
C956        C  0.06787982  0.59737490  0.69066541     0.07300
C957        C  0.07851773  0.59759461  0.70284694    -0.05800
H958        H  0.05443546  0.57740095  0.68191578     0.08000
H959        H  0.08363299  0.60778668  0.70816466     0.09200
Cu960      Cu  0.06509832  0.55149432  0.70646128     0.44200
Cu961      Cu  0.09368450  0.57444855  0.72684814     0.42000
Cu962      Cu  0.07013096  0.54630445  0.74700798     0.43900
N963        N  0.05205351  0.53605222  0.71927572    -0.34400
N964        N  0.05308648  0.53500065  0.73453251    -0.28700
C965        C  0.04248834  0.52473828  0.73966736    -0.04800
C966        C  0.03444539  0.51911460  0.72695833     0.07400
C967        C  0.04076404  0.52652312  0.71422407     0.01200
H968        H  0.04104958  0.52134012  0.75166625     0.08900
H969        H  0.03734723  0.52519863  0.70220961     0.07900
N970        N  0.09252833  0.55179424  0.75348604    -0.35900
N971        N  0.10191590  0.56107626  0.74562948    -0.28100
C972        C  0.11655669  0.55903154  0.75106029    -0.03300
C973        C  0.11614004  0.54818252  0.76306650     0.05300
C974        C  0.10071833  0.54388992  0.76411771     0.03400
H975        H  0.12679057  0.56449989  0.74624063     0.08500
H976        H  0.09597990  0.53454583  0.77110125     0.07300
O977        O  0.98325512  0.50385003  0.73619484    -0.72700
O978        O  0.01467717  0.47037015  0.74242713    -0.73700
O979        O  0.01594286  0.50312172  0.73962020    -0.62300
O980        O  0.98203606  0.47128846  0.73888555    -0.70700
O981        O  0.98495996  0.46857702  0.71339996    -0.70300
O982        O  0.01784239  0.50147970  0.71394645    -0.61500
O983        O  0.01779259  0.46864241  0.71685817    -0.74000
O984        O  0.98512999  0.50147937  0.71057544    -0.72800
Cu985      Cu  0.99889271  0.48724680  0.74017032     1.04600
Cu986      Cu  0.00153686  0.48495746  0.71277645     1.04300
C987        C  0.97910165  0.50784510  0.72254383     0.93500
C988        C  0.02123498  0.46430574  0.73061598     0.92600
C989        C  0.02214950  0.50737876  0.72685432     0.84800
C990        C  0.97819027  0.46490181  0.72605930     0.91000
N991        N  0.73400702  0.39823260  0.90540020    -0.27100
N992        N  0.72608703  0.40702227  0.91521034    -0.34900
C993        C  0.71507725  0.39844048  0.92203786     0.01300
C994        C  0.71608181  0.38338337  0.91652530     0.07300
C995        C  0.72827085  0.38359479  0.90595186    -0.05800
H996        H  0.70759374  0.40261159  0.93123606     0.08000
H997        H  0.73285504  0.37383713  0.89943655     0.09200
Cu998      Cu  0.73247810  0.42894475  0.92247706     0.44200
Cu999      Cu  0.75290988  0.40705439  0.89310366     0.42000
Cu1000     Cu  0.77258613  0.43549690  0.91769182     0.43900
N1001       N  0.74442460  0.44521908  0.93535342    -0.34400
N1002       N  0.75965895  0.44680237  0.93438546    -0.28700
C1003       C  0.76440118  0.45731848  0.94491704    -0.04800
C1004       C  0.75145712  0.46255660  0.95286190     0.07400
C1005       C  0.73897412  0.45467859  0.94652465     0.01200
H1006       H  0.77631627  0.46101469  0.94650506     0.08900
H1007       H  0.72691529  0.45548663  0.94998057     0.07900
N1008       N  0.77925616  0.43003013  0.89538565    -0.35900
N1009       N  0.77150235  0.42079879  0.88582000    -0.28100
C1010       C  0.77709734  0.42280243  0.87133200    -0.03300
C1011       C  0.78903031  0.43362486  0.87202000     0.05300
C1012       C  0.79009894  0.43784307  0.88741068     0.03400
H1013       H  0.77256875  0.41712232  0.86105515     0.08500
H1014       H  0.79744257  0.44683830  0.89227067     0.07300
N1015       N  0.74870827  0.59599205  0.90934183    -0.27100
N1016       N  0.73930876  0.58771956  0.91824578    -0.34900
C1017       C  0.72899483  0.59716546  0.92505832     0.01300
C1018       C  0.73183307  0.61226192  0.92043561     0.07300
C1019       C  0.74459585  0.61116487  0.91055412    -0.05800
H1020       H  0.72101629  0.59343964  0.93403943     0.08000
H1021       H  0.75081986  0.62071122  0.90524083     0.09200
Cu1022     Cu  0.74273737  0.56502963  0.92513616     0.44200
Cu1023     Cu  0.76732966  0.58563054  0.89739973     0.42000
Cu1024     Cu  0.78097062  0.55294763  0.92080056     0.43900
N1025       N  0.75177697  0.54707702  0.93814649    -0.34400
N1026       N  0.76660754  0.54326881  0.93723577    -0.28700
C1027       C  0.76969630  0.53200615  0.94758749    -0.04800
C1028       C  0.75608310  0.52863955  0.95541142     0.07400
C1029       C  0.74491406  0.53836844  0.94913693     0.01200
H1030       H  0.78090947  0.52647431  0.94906624     0.08900
H1031       H  0.73280452  0.53919983  0.95241477     0.07900
N1032       N  0.78907450  0.55814568  0.89896838    -0.35900
N1033       N  0.78384166  0.56929560  0.88975606    -0.28100
C1034       C  0.78990101  0.56705004  0.87543491    -0.03300
C1035       C  0.79938201  0.55387561  0.87583878     0.05300
C1036       C  0.79850745  0.54870895  0.89097735     0.03400
H1037       H  0.78727967  0.57423223  0.86545594     0.08500
H1038       H  0.80350638  0.53814248  0.89565497     0.07300
N1039       N  0.73746605  0.38375540  0.05163871    -0.27100
N1040       N  0.74025278  0.38888292  0.03744215    -0.34900
C1041       C  0.73436895  0.37878707  0.02710820     0.01300
C1042       C  0.72741757  0.36670792  0.03503620     0.07300
C1043       C  0.72943878  0.37028643  0.05061361    -0.05800
H1044       H  0.73350911  0.38103430  0.01478450     0.08000
H1045       H  0.72427594  0.36432127  0.06037973     0.09200
Cu1046     Cu  0.74685899  0.41140683  0.03219977     0.44200
Cu1047     Cu  0.74231038  0.39707992  0.07135721     0.42000
Cu1048     Cu  0.73732581  0.43795687  0.06250248     0.43900
N1049       N  0.74566235  0.43522447  0.02891848    -0.34400
N1050       N  0.74103363  0.44492869  0.03989929    -0.28700
C1051       C  0.74076796  0.45949553  0.03419164    -0.04800
C1052       C  0.74551914  0.45882564  0.01892725     0.07400
C1053       C  0.74854419  0.44333361  0.01590057     0.01200
H1054       H  0.73778344  0.46979889  0.04077893     0.08900
H1055       H  0.75240197  0.43831384  0.00504661     0.07900
N1056       N  0.74331202  0.42971480  0.08417713    -0.35900
N1057       N  0.74659993  0.41498080  0.08722490    -0.28100
C1058       C  0.75459993  0.41435133  0.10068850    -0.03300
C1059       C  0.75604520  0.42936938  0.10645829     0.05300
C1060       C  0.74876932  0.43873389  0.09566943     0.03400
H1061       H  0.76011178  0.40397645  0.10521686     0.08500
H1062       H  0.74927510  0.45131310  0.09516851     0.07300
N1063       N  0.74977009  0.56272750  0.09508389    -0.27100
N1064       N  0.74540604  0.54873959  0.09035861    -0.34900
C1065       C  0.75051055  0.53804602  0.10050089     0.01300
C1066       C  0.75880934  0.54550585  0.11203611     0.07300
C1067       C  0.75808358  0.56119973  0.10827894    -0.05800
H1068       H  0.74989685  0.52560328  0.09859452     0.08000
H1069       H  0.76405073  0.57066239  0.11406093     0.09200
Cu1070     Cu  0.73866906  0.54356580  0.06792437     0.44200
Cu1071     Cu  0.74688305  0.58256169  0.08149878     0.42000
Cu1072     Cu  0.75779708  0.57073964  0.04320468     0.43900
N1073       N  0.74460817  0.53856350  0.04522175    -0.34400
N1074       N  0.75325177  0.54802825  0.03676404    -0.28700
C1075       C  0.75672148  0.54103421  0.02324287    -0.04800
C1076       C  0.74977601  0.52656049  0.02320553     0.07400
C1077       C  0.74213702  0.52533257  0.03723787     0.01200
H1078       H  0.76330661  0.54630772  0.01394995     0.08900
H1079       H  0.73562209  0.51544814  0.04148269     0.07900
N1080       N  0.75143324  0.59324404  0.04877526    -0.35900
N1081       N  0.74604044  0.59748722  0.06250100    -0.28100
C1082       C  0.73927937  0.61160603  0.06115328    -0.03300
C1083       C  0.74069347  0.61645062  0.04584839     0.05300
C1084       C  0.74853771  0.60454855  0.03843522     0.03400
H1085       H  0.73318255  0.61753715  0.07042215     0.08500
H1086       H  0.75060119  0.60350789  0.02609641     0.07300
O1087       O  0.73813862  0.47974018  0.96982285    -0.72700
O1088       O  0.73729118  0.51091190  0.00441382    -0.73700
O1089       O  0.74033684  0.51268647  0.97152460    -0.62300
O1090       O  0.73517233  0.47822550  0.00248643    -0.70700
O1091       O  0.76089508  0.47638842  0.00452089    -0.70300
O1092       O  0.76602007  0.51050533  0.97346195    -0.61500
O1093       O  0.76305707  0.50954191  0.00614903    -0.74000
O1094       O  0.76384116  0.47797578  0.97195318    -0.72800
Cu1095     Cu  0.73681892  0.49548846  0.98698702     1.04600
Cu1096     Cu  0.76434758  0.49356083  0.98915473     1.04300
C1097       C  0.75111478  0.47395588  0.96546781     0.93500
C1098       C  0.75006095  0.51512446  0.01068220     0.92600
C1099       C  0.75401093  0.51679539  0.96742455     0.84800
C1100       C  0.74727391  0.47180863  0.00820635     0.91000
N1101       N  0.91885164  0.38297948  0.24745028    -0.27100
N1102       N  0.92696005  0.39195679  0.25694773    -0.34900
C1103       C  0.93464507  0.38307869  0.26714734     0.01300
C1104       C  0.93156171  0.36766452  0.26394104     0.07300
C1105       C  0.92146993  0.36794043  0.25132405    -0.05800
H1106       H  0.94288218  0.38750399  0.27555662     0.08000
H1107       H  0.91670083  0.35800998  0.24521225     0.09200
Cu1108     Cu  0.93170090  0.41516825  0.25357083     0.44200
Cu1109     Cu  0.90591547  0.39238245  0.22912342     0.42000
Cu1110     Cu  0.92782612  0.42529634  0.21434187     0.43900
N1111       N  0.94440119  0.43289518  0.24377501    -0.34400
N1112       N  0.94373958  0.43591886  0.22877403    -0.28700
C1113       C  0.95439107  0.44678303  0.22529014    -0.04800
C1114       C  0.96214102  0.45069564  0.23880411     0.07400
C1115       C  0.95553333  0.44170129  0.25032496     0.01200
H1116       H  0.95636517  0.45142919  0.21379505     0.08900
H1117       H  0.95890813  0.44117683  0.26240705     0.07900
N1118       N  0.90634044  0.41867613  0.20607320    -0.35900
N1119       N  0.89753973  0.40758881  0.21207484    -0.28100
C1120       C  0.88301706  0.40905410  0.20624150    -0.03300
C1121       C  0.88289322  0.42155167  0.19599220     0.05300
C1122       C  0.89788991  0.42721088  0.19616352     0.03400
H1123       H  0.87321289  0.40192778  0.20961233     0.08500
H1124       H  0.90203253  0.43765193  0.19050900     0.07300
N1125       N  0.89822380  0.55687659  0.21617472    -0.27100
N1126       N  0.90717878  0.54580446  0.21035465    -0.34900
C1127       C  0.89899374  0.53741264  0.20005518     0.01300
C1128       C  0.88408085  0.54332561  0.19938250     0.07300
C1129       C  0.88390877  0.55558987  0.20988147    -0.05800
H1130       H  0.90316891  0.52686455  0.19455124     0.08000
H1131       H  0.87395046  0.56250826  0.21325700     0.09200
Cu1132     Cu  0.92862083  0.53980673  0.21935193     0.44200
Cu1133     Cu  0.90611675  0.57176919  0.23359068     0.42000
Cu1134     Cu  0.93514288  0.55157597  0.25800425     0.43900
N1135       N  0.94618662  0.53066067  0.23291196    -0.34400
N1136       N  0.94799084  0.53409095  0.24774210    -0.28700
C1137       C  0.95971466  0.52548037  0.25359480    -0.04800
C1138       C  0.96553307  0.51629844  0.24173099     0.07400
C1139       C  0.95669825  0.51987536  0.22882774     0.01200
H1140       H  0.96376654  0.52599291  0.26547746     0.08900
H1141       H  0.95753318  0.51469076  0.21741946     0.07900
N1142       N  0.92827553  0.57443388  0.26062294    -0.35900
N1143       N  0.91899159  0.58232196  0.25119830    -0.28100
C1144       C  0.92061302  0.59767872  0.25419834    -0.03300
C1145       C  0.93122065  0.59929328  0.26619861     0.05300
C1146       C  0.93572555  0.58439309  0.26996267     0.03400
H1147       H  0.91506226  0.60691655  0.24769946     0.08500
H1148       H  0.94488886  0.58111769  0.27794285     0.07300
N1149       N  0.07292140  0.37756451  0.25609435    -0.27100
N1150       N  0.06201762  0.38551872  0.26351693    -0.34900
C1151       C  0.05303853  0.37571987  0.27154719     0.01300
C1152       C  0.05826846  0.36080475  0.26909895     0.07300
C1153       C  0.07092478  0.36224315  0.25920946    -0.05800
H1154       H  0.04283413  0.37915335  0.27804056     0.08000
H1155       H  0.07788092  0.35292247  0.25440348     0.09200
Cu1156     Cu  0.05629582  0.40854287  0.26040350     0.44200
Cu1157     Cu  0.08883075  0.38834046  0.24110597     0.42000
Cu1158     Cu  0.06802146  0.42098938  0.22411492     0.43900
N1159       N  0.04568190  0.42709218  0.24968900    -0.34400
N1160       N  0.04944239  0.43103796  0.23539353    -0.28700
C1161       C  0.04019164  0.44271889  0.23069207    -0.04800
C1162       C  0.03014100  0.44626551  0.24269655     0.07400
C1163       C  0.03391795  0.43616110  0.25460303     0.01200
H1164       H  0.04099611  0.44844748  0.21954606     0.08900
H1165       H  0.02844628  0.43532898  0.26586905     0.07900
N1166       N  0.09043387  0.41480729  0.21835086    -0.35900
N1167       N  0.09877173  0.40372349  0.22502899    -0.28100
C1168       C  0.11360265  0.40490157  0.21992465    -0.03300
C1169       C  0.11436276  0.41711478  0.20933993     0.05300
C1170       C  0.09948719  0.42308997  0.20881663     0.03400
H1171       H  0.12312496  0.39763061  0.22378457     0.08500
H1172       H  0.09567870  0.43343922  0.20271259     0.07300
N1173       N  0.07826737  0.57694217  0.25607934    -0.27100
N1174       N  0.06931040  0.56846482  0.26526659    -0.34900
C1175       C  0.05997158  0.57781772  0.27345937     0.01300
C1176       C  0.06295898  0.59300193  0.26938396     0.07300
C1177       C  0.07456036  0.59212879  0.25818718    -0.05800
H1178       H  0.05079029  0.57373931  0.28102999     0.08000
H1179       H  0.07966512  0.60172802  0.25187265     0.09200
Cu1180     Cu  0.06571647  0.54485208  0.26386989     0.44200
Cu1181     Cu  0.09421195  0.56665336  0.24067743     0.42000
Cu1182     Cu  0.07625370  0.53115065  0.22753774     0.43900
N1183       N  0.05359561  0.52721155  0.25322126    -0.34400
N1184       N  0.05682774  0.52312903  0.23882488    -0.28700
C1185       C  0.04591079  0.51325557  0.23368989    -0.04800
C1186       C  0.03529773  0.51102501  0.24549696     0.07400
C1187       C  0.04050825  0.51997549  0.25778340     0.01200
H1188       H  0.04576460  0.50804315  0.22225781     0.08900
H1189       H  0.03490526  0.52161850  0.26890019     0.07900
N1190       N  0.09892235  0.53695952  0.22273197    -0.35900
N1191       N  0.10604316  0.54972723  0.22756514    -0.28100
C1192       C  0.12117997  0.54881942  0.22336346    -0.03300
C1193       C  0.12344840  0.53474383  0.21570975     0.05300
C1194       C  0.10912084  0.52765694  0.21549996     0.03400
H1195       H  0.12986024  0.55757025  0.22585384     0.08500
H1196       H  0.10633256  0.51634186  0.21063920     0.07300
O1197       O  0.98204856  0.49878378  0.25545596    -0.72700
O1198       O  0.01267969  0.46334746  0.25562132    -0.73700
O1199       O  0.01509119  0.49626912  0.25721700    -0.62300
O1200       O  0.97978986  0.46579873  0.25377691    -0.70700
O1201       O  0.98142887  0.46695724  0.22806384    -0.70300
O1202       O  0.01644168  0.49700127  0.23146687    -0.61500
O1203       O  0.01423337  0.46464709  0.22990798    -0.74000
O1204       O  0.98352295  0.49942886  0.22971715    -0.72800
Cu1205     Cu  0.99734210  0.48103198  0.25646728     1.04600
Cu1206     Cu  0.99894554  0.48208440  0.22892776     1.04300
C1207       C  0.97772986  0.50441030  0.24241963     0.93500
C1208       C  0.01840208  0.45859835  0.24277681     0.92600
C1209       C  0.02153925  0.50108946  0.24476203     0.84800
C1210       C  0.97505557  0.46165723  0.24032668     0.91000
N1211       N  0.91504917  0.24275846  0.38261014    -0.27100
N1212       N  0.92927006  0.23790940  0.38596205    -0.34900
C1213       C  0.93895354  0.24199881  0.37444029     0.01300
C1214       C  0.93061405  0.25004365  0.36331802     0.07300
C1215       C  0.91548004  0.25042383  0.36894044    -0.05800
H1216       H  0.95149789  0.24100458  0.37507945     0.08000
H1217       H  0.90581584  0.25684900  0.36407339     0.09200
Cu1218     Cu  0.93640125  0.23149882  0.40803372     0.44200
Cu1219     Cu  0.89655995  0.24085322  0.39834635     0.42000
Cu1220     Cu  0.91178357  0.25041447  0.43559043     0.43900
N1221       N  0.94302141  0.23596714  0.43073728    -0.34400
N1222       N  0.93453542  0.24464670  0.44016559    -0.28700
C1223       C  0.94219154  0.24665291  0.45359970    -0.04800
C1224       C  0.95609945  0.23873800  0.45259397     0.07400
C1225       C  0.95627750  0.23197385  0.43803149     0.01200
H1226       H  0.93758360  0.25265229  0.46363566     0.08900
H1227       H  0.96538038  0.22485044  0.43306732     0.07900
N1228       N  0.88933061  0.24292010  0.43232364    -0.35900
N1229       N  0.88363454  0.23837984  0.41880784    -0.28100
C1230       C  0.87041733  0.23028676  0.42141713    -0.03300
C1231       C  0.86795380  0.22962686  0.43734667     0.05300
C1232       C  0.88009641  0.23788112  0.44379017     0.03400
H1233       H  0.86392399  0.22415789  0.41257355     0.08500
H1234       H  0.88281937  0.23894266  0.45601032     0.07300
N1235       N  0.88198728  0.24150888  0.56090009    -0.27100
N1236       N  0.88489592  0.24239563  0.54584351    -0.34900
C1237       C  0.87186532  0.23910871  0.53788785     0.01300
C1238       C  0.86012463  0.23565572  0.54826307     0.07300
C1239       C  0.86701744  0.23713777  0.56279781    -0.05800
H1240       H  0.87150131  0.23730143  0.52544116     0.08000
H1241       H  0.86187371  0.23410281  0.57383204     0.09200
Cu1242     Cu  0.90702654  0.24222359  0.53626935     0.44200
Cu1243     Cu  0.89934529  0.24425816  0.57789969     0.42000
Cu1244     Cu  0.93519835  0.22905161  0.56380587     0.43900
N1245       N  0.92876896  0.23377186  0.53002685    -0.34400
N1246       N  0.93846211  0.22758397  0.54021298    -0.28700
C1247       C  0.95174859  0.22365030  0.53304277    -0.04800
C1248       C  0.95036925  0.22752237  0.51759119     0.07400
C1249       C  0.93573994  0.23408445  0.51606035     0.01200
H1250       H  0.96220293  0.21990164  0.53894866     0.08900
H1251       H  0.93093123  0.23956340  0.50581909     0.07900
N1252       N  0.93329680  0.23982132  0.58506602    -0.35900
N1253       N  0.92036279  0.24631918  0.59021463    -0.28100
C1254       C  0.92383903  0.25485216  0.60293822    -0.03300
C1255       C  0.93975108  0.25361763  0.60582663     0.05300
C1256       C  0.94522597  0.24388420  0.59426728     0.03400
H1257       H  0.91547995  0.26177323  0.60929775     0.08500
H1258       H  0.95723362  0.24090880  0.59200469     0.07300
N1259       N  0.09430234  0.22983622  0.41970941    -0.27100
N1260       N  0.09062669  0.23233418  0.43442582    -0.34900
C1261       C  0.10125775  0.22546227  0.44358892     0.01300
C1262       C  0.11215863  0.21814388  0.43433465     0.07300
C1263       C  0.10731656  0.22104723  0.41923621    -0.05800
H1264       H  0.10024408  0.22456432  0.45608054     0.08000
H1265       H  0.11240181  0.21640917  0.40872944     0.09200
Cu1266     Cu  0.06943155  0.24090405  0.44209828     0.44200
Cu1267     Cu  0.08016301  0.23645480  0.40097691     0.42000
Cu1268     Cu  0.04113889  0.23249869  0.41311678     0.43900
N1269       N  0.04576477  0.24097896  0.44657167    -0.34400
N1270       N  0.03561032  0.23675038  0.43585829    -0.28700
C1271       C  0.02143548  0.23578974  0.44218964    -0.04800
C1272       C  0.02266227  0.23972692  0.45761167     0.07400
C1273       C  0.03822939  0.24290605  0.46014611     0.01200
H1274       H  0.01108813  0.23204369  0.43610095     0.08900
H1275       H  0.04378803  0.24534210  0.47114661     0.07900
N1276       N  0.04695298  0.23729303  0.39058689    -0.35900
N1277       N  0.06128398  0.24041634  0.38608790    -0.28100
C1278       C  0.06062635  0.24707462  0.37190919    -0.03300
C1279       C  0.04512796  0.24775424  0.36727293     0.05300
C1280       C  0.03688070  0.24150149  0.37947330     0.03400
H1281       H  0.07051801  0.25188481  0.36584351     0.08500
H1282       H  0.02437638  0.24167326  0.38093873     0.07300
N1283       N  0.09032621  0.20921235  0.55945705    -0.27100
N1284       N  0.08208509  0.20402735  0.54754905    -0.34900
C1285       C  0.09140847  0.19627406  0.53780721     0.01300
C1286       C  0.10627495  0.19648419  0.54372882     0.07300
C1287       C  0.10530519  0.20487089  0.55745586    -0.05800
H1288       H  0.08763003  0.19098304  0.52703173     0.08000
H1289       H  0.11465572  0.20734554  0.56549086     0.09200
Cu1290     Cu  0.05887576  0.20830260  0.54341458     0.44200
Cu1291     Cu  0.08016514  0.22145498  0.57778154     0.42000
Cu1292     Cu  0.04121674  0.23590540  0.56643163     0.43900
N1293       N  0.03828880  0.21867306  0.53692586    -0.34400
N1294       N  0.03222520  0.23022403  0.54499342    -0.28700
C1295       C  0.01999019  0.23611864  0.53719995    -0.04800
C1296       C  0.01822586  0.22757366  0.52369103     0.07400
C1297       C  0.02997531  0.21659260  0.52390059     0.01200
H1298       H  0.01285445  0.24571661  0.54114362     0.08900
H1299       H  0.03266600  0.20815173  0.51496902     0.07900
N1300       N  0.05034833  0.23660633  0.58858086    -0.35900
N1301       N  0.06440154  0.23202338  0.59291749    -0.28100
C1302       C  0.06643738  0.23580408  0.60800281    -0.03300
C1303       C  0.05287522  0.24269781  0.61332576     0.05300
C1304       C  0.04305697  0.24305702  0.60070089     0.03400
H1305       H  0.07721670  0.23440548  0.61434689     0.08500
H1306       H  0.03180915  0.24869490  0.60006545     0.07300
O1307       O  0.00272005  0.21807373  0.50313895    -0.72700
O1308       O  0.97250114  0.22328115  0.46828269    -0.73700
O1309       O  0.00494259  0.22396032  0.47107053    -0.62300
O1310       O  0.96969578  0.21755276  0.50065178    -0.70700
O1311       O  0.96851628  0.24314557  0.50448739    -0.70300
O1312       O  0.00493239  0.24932419  0.47634732    -0.61500
O1313       O  0.97191870  0.24879987  0.47269404    -0.74000
O1314       O  0.00126455  0.24334070  0.50857496    -0.72800
Cu1315     Cu  0.98749842  0.21981294  0.48566731     1.04600
Cu1316     Cu  0.98665724  0.24706253  0.49069220     1.04300
C1317       C  0.00678801  0.22979471  0.51130163     0.93500
C1318       C  0.96747323  0.23686946  0.46501691     0.92600
C1319       C  0.01043252  0.23760373  0.46906248     0.84800
C1320       C  0.96338909  0.22944795  0.50696893     0.91000
O1321       O  0.97551438  0.32731648  0.30953181    -0.72700
O1322       O  0.00632774  0.30055370  0.33199865    -0.73700
O1323       O  0.00868974  0.32503897  0.31019526    -0.62300
O1324       O  0.97322033  0.30247142  0.33115793    -0.70700
O1325       O  0.97288185  0.28565307  0.31162892    -0.70300
O1326       O  0.00812080  0.30828225  0.29065238    -0.61500
O1327       O  0.00572294  0.28344037  0.31270509    -0.74000
O1328       O  0.97485619  0.31066903  0.28991904    -0.72800
Cu1329     Cu  0.99094901  0.31447189  0.32133826     1.04600
Cu1330     Cu  0.99036470  0.29645796  0.30051281     1.04300
C1331       C  0.97013110  0.32327418  0.29631657     0.93500
C1332       C  0.01077116  0.28769212  0.32603381     0.92600
C1333       C  0.01419450  0.32013304  0.29728829     0.84800
C1334       C  0.96768104  0.29021076  0.32477111     0.91000
O1335       O  0.82441049  0.18277059  0.51467291    -0.72700
O1336       O  0.80963234  0.15660375  0.47935543    -0.73700
O1337       O  0.83039011  0.18196546  0.48236072    -0.62300
O1338       O  0.80335117  0.15770893  0.51160774    -0.70700
O1339       O  0.78384474  0.17398119  0.50706138    -0.70300
O1340       O  0.81098148  0.19812286  0.47725565    -0.61500
O1341       O  0.78989812  0.17237203  0.47436784    -0.74000
O1342       O  0.80547054  0.19965335  0.50994942    -0.72800
Cu1343     Cu  0.81754014  0.16920561  0.49714161     1.04600
Cu1344     Cu  0.79681273  0.18663186  0.49206305     1.04300
C1345       C  0.81759561  0.19561334  0.51766831     0.93500
C1346       C  0.79768162  0.16004384  0.47121576     0.92600
C1347       C  0.82507755  0.19387749  0.47516258     0.84800
C1348       C  0.78927623  0.16191896  0.51389126     0.91000
O1349       O  0.16421945  0.17197084  0.50008129    -0.72700
O1350       O  0.18747431  0.14974912  0.46548197    -0.73700
O1351       O  0.16581974  0.17542956  0.46742890    -0.62300
O1352       O  0.18543136  0.14628427  0.49848170    -0.70700
O1353       O  0.16564721  0.13007193  0.49560251    -0.70300
O1354       O  0.14630256  0.15886376  0.46419025    -0.61500
O1355       O  0.16765355  0.13354737  0.46293011    -0.74000
O1356       O  0.14474313  0.15541992  0.49675961    -0.72800
Cu1357     Cu  0.17647978  0.16142057  0.48290685     1.04600
Cu1358     Cu  0.15546244  0.14392235  0.47972606     1.04300
C1359       C  0.15067956  0.16710006  0.50380368     0.93500
C1360       C  0.18125273  0.13793585  0.45886956     0.92600
C1361       C  0.15267138  0.17198885  0.46136186     0.84800
C1362       C  0.17851756  0.13360362  0.50212375     0.91000
O1363       O  0.79755883  0.46705107  0.15753813    -0.72700
O1364       O  0.82505272  0.49898743  0.17873252    -0.73700
O1365       O  0.79691619  0.49985141  0.16036856    -0.62300
O1366       O  0.82545193  0.46592875  0.17571863    -0.70700
O1367       O  0.83949465  0.46775712  0.15430229    -0.70300
O1368       O  0.81144471  0.50189671  0.13919167    -0.61500
O1369       O  0.83908928  0.50053679  0.15728384    -0.74000
O1370       O  0.81182321  0.46901945  0.13623648    -0.72800
Cu1371     Cu  0.81076299  0.48289112  0.16886738     1.04600
Cu1372     Cu  0.82593614  0.48488756  0.14604520     1.04300
C1373       C  0.80024887  0.46315744  0.14345072     0.93500
C1374       C  0.83665477  0.50464388  0.17134306     0.92600
C1375       C  0.79957935  0.50599548  0.14712929     0.84800
C1376       C  0.83704525  0.46150142  0.16751436     0.91000
O1377       O  0.18141121  0.45890877  0.14540265    -0.72700
O1378       O  0.16265747  0.49385102  0.16927187    -0.73700
O1379       O  0.18637000  0.49154526  0.14648784    -0.62300
O1380       O  0.15837679  0.46127752  0.16846300    -0.70700
O1381       O  0.17581575  0.45733037  0.18694760    -0.70300
O1382       O  0.20394036  0.48810779  0.16495397    -0.61500
O1383       O  0.17961607  0.49049083  0.18833034    -0.74000
O1384       O  0.19936316  0.45482129  0.16330943    -0.72800
Cu1385     Cu  0.17167032  0.47651616  0.15683122     1.04600
Cu1386     Cu  0.19038809  0.47263680  0.17655809     1.04300
C1387       C  0.19301987  0.45110376  0.15033253     0.93500
C1388       C  0.16774266  0.49758558  0.18266246     0.92600
C1389       C  0.19977970  0.49451862  0.15219060     0.84800
C1390       C  0.16249449  0.45445756  0.18102883     0.91000
O1391       O  0.66919797  0.34456580  0.95937573    -0.72700
O1392       O  0.64715011  0.31859145  0.99053490    -0.73700
O1393       O  0.67163120  0.34043500  0.99189764    -0.62300
O1394       O  0.64484428  0.32278031  0.95819883    -0.70700
O1395       O  0.66138483  0.30344432  0.95425607    -0.70300
O1396       O  0.68863213  0.32139863  0.98857894    -0.61500
O1397       O  0.66363772  0.29907362  0.98725771    -0.74000
O1398       O  0.68624136  0.32562318  0.95554009    -0.72800
Cu1399     Cu  0.65767832  0.33218785  0.97514168     1.04600
Cu1400     Cu  0.67562999  0.31168863  0.97129659     1.04300
C1401       C  0.68111850  0.33926327  0.95233650     0.93500
C1402       C  0.65153657  0.30475829  0.99379140     0.92600
C1403       C  0.68442605  0.33386846  0.99562608     0.84800
C1404       C  0.64866802  0.31042501  0.95084114     0.91000
O1405       O  0.83840120  0.47385020  0.83184702    -0.72700
O1406       O  0.86024628  0.50638489  0.80666719    -0.73700
O1407       O  0.84154380  0.50655149  0.83356170    -0.62300
O1408       O  0.85696508  0.47328709  0.80501103    -0.70700
O1409       O  0.83630577  0.47562427  0.78975292    -0.70300
O1410       O  0.82068800  0.50932953  0.81874075    -0.61500
O1411       O  0.83948823  0.50886016  0.79160262    -0.74000
O1412       O  0.81754971  0.47640398  0.81698437    -0.72800
Cu1413     Cu  0.85004792  0.48993481  0.81969417     1.04600
Cu1414     Cu  0.82779231  0.49267742  0.80371046     1.04300
C1415       C  0.82442894  0.47006773  0.82854403     0.93500
C1416       C  0.85327444  0.51297911  0.79533275     0.92600
C1417       C  0.82850285  0.51311074  0.83082821     0.84800
C1418       C  0.84903384  0.46877409  0.79328135     0.91000
O1419       O  0.01666115  0.28007404  0.66697663    -0.72700
O1420       O  0.98080633  0.30713819  0.68252924    -0.73700
O1421       O  0.98426808  0.28151920  0.66105827    -0.62300
O1422       O  0.01354010  0.30531729  0.68893327    -0.70700
O1423       O  0.01841032  0.32199540  0.66999086    -0.70300
O1424       O  0.98835722  0.29868339  0.64225306    -0.61500
O1425       O  0.98605826  0.32367463  0.66357734    -0.74000
O1426       O  0.02069895  0.29717566  0.64820614    -0.72800
Cu1427     Cu  0.99869645  0.29292649  0.67559083     1.04600
Cu1428     Cu  0.00356131  0.31094643  0.65541215     1.04300
C1429       C  0.02399018  0.28426163  0.65471957     0.93500
C1430       C  0.97781573  0.31983585  0.67527703     0.92600
C1431       C  0.98173963  0.28632830  0.64725983     0.84800
C1432       C  0.02054640  0.31746485  0.68398959     0.91000
O1433       O  0.15501293  0.46751859  0.80497415    -0.72700
O1434       O  0.17384904  0.50150893  0.83114406    -0.73700
O1435       O  0.15333024  0.50054060  0.80549944    -0.62300
O1436       O  0.17519532  0.46882059  0.83050882    -0.70700
O1437       O  0.19551512  0.46909605  0.81479167    -0.70300
O1438       O  0.17297792  0.50243870  0.78904065    -0.61500
O1439       O  0.19400627  0.50248965  0.81525986    -0.74000
O1440       O  0.17475675  0.46882052  0.78853210    -0.72800
Cu1441     Cu  0.16369631  0.48458454  0.81848327     1.04600
Cu1442     Cu  0.18505448  0.48577930  0.80127468     1.04300
C1443       C  0.16186941  0.46269152  0.79271362     0.93500
C1444       C  0.18714652  0.50711118  0.82762525     0.92600
C1445       C  0.15943383  0.50678345  0.79353527     0.84800
C1446       C  0.18864562  0.46375690  0.82687296     0.91000
O1447       O  0.31245300  0.27246767  0.99340042    -0.72700
O1448       O  0.29334590  0.30127416  0.96126916    -0.73700
O1449       O  0.31311001  0.27425010  0.96062334    -0.62300
O1450       O  0.29247341  0.29952014  0.99443977    -0.70700
O1451       O  0.31359701  0.31423515  0.99510501    -0.70300
O1452       O  0.33416389  0.28908804  0.96205275    -0.61500
O1453       O  0.31475855  0.31553234  0.96261207    -0.74000
O1454       O  0.33311953  0.28788545  0.99482335    -0.72800
Cu1455     Cu  0.30204095  0.28634431  0.97738875     1.04600
Cu1456     Cu  0.32453918  0.30221914  0.97869400     1.04300
C1457       C  0.32594204  0.27556531  0.99890726     0.93500
C1458       C  0.30131746  0.31303384  0.95683276     0.92600
C1459       C  0.32697737  0.27744413  0.95628473     0.84800
C1460       C  0.29998921  0.31104289  0.00011243     0.91000
O1461       O  0.48005788  0.15574410  0.78199808    -0.72700
O1462       O  0.51378905  0.18124159  0.80320809    -0.73700
O1463       O  0.51332197  0.15652845  0.78107521    -0.62300
O1464       O  0.48062625  0.18100741  0.80424502    -0.70700
O1465       O  0.48139395  0.16392184  0.82349140    -0.70300
O1466       O  0.51363782  0.13941433  0.80026623    -0.61500
O1467       O  0.51444459  0.16382644  0.82214442    -0.74000
O1468       O  0.48063104  0.13906502  0.80157801    -0.72800
Cu1469     Cu  0.49686638  0.16925048  0.79195013     1.04600
Cu1470     Cu  0.49752631  0.15099450  0.81250558     1.04300
C1471       C  0.47515524  0.14321156  0.78842259     0.93500
C1472       C  0.51957209  0.17634283  0.81600923     0.92600
C1473       C  0.51870764  0.14404131  0.78710108     0.84800
C1474       C  0.47606055  0.17652727  0.81764425     0.91000
O1475       O  0.51694533  0.15944585  0.12472078    -0.72700
O1476       O  0.48332904  0.14001043  0.15016362    -0.73700
O1477       O  0.48398564  0.16401665  0.12768099    -0.62300
O1478       O  0.51613447  0.13590884  0.14736093    -0.70700
O1479       O  0.52002624  0.15362418  0.16560411    -0.70300
O1480       O  0.48772351  0.18166236  0.14604259    -0.61500
O1481       O  0.48701834  0.15731010  0.16885486    -0.74000
O1482       O  0.52086364  0.17744367  0.14274480    -0.72800
Cu1483     Cu  0.49993709  0.14929785  0.13684795     1.04600
Cu1484     Cu  0.50401775  0.16815591  0.15645506     1.04300
C1485       C  0.52453166  0.17118205  0.12975264     0.93500
C1486       C  0.47984064  0.14536184  0.16353537     0.92600
C1487       C  0.48058529  0.17718972  0.13379964     0.84800
C1488       C  0.52337643  0.14044343  0.15952373     0.91000
O1489       O  0.34247252  0.96215859  0.65616023    -0.72700
O1490       O  0.31987719  0.99377439  0.63112890    -0.73700
O1491       O  0.34402623  0.99482373  0.65305262    -0.62300
O1492       O  0.31778599  0.96103184  0.63440362    -0.70700
O1493       O  0.30063744  0.96372839  0.65332861    -0.70300
O1494       O  0.32711656  0.99797823  0.67214483    -0.61500
O1495       O  0.30236609  0.99707848  0.64968153    -0.74000
O1496       O  0.32593863  0.96469706  0.67564519    -0.72800
Cu1497     Cu  0.33155125  0.97781236  0.64309258     1.04600
Cu1498     Cu  0.31334654  0.98092532  0.66340136     1.04300
C1499       C  0.33821370  0.95848340  0.66985931     0.93500
C1500       C  0.30784181  0.00072207  0.63632611     0.92600
C1501       C  0.33983171  0.00181409  0.66548149     0.84800
C1502       C  0.30493680  0.95708362  0.64073949     0.91000
O1503       O  0.48236416  0.78517047  0.81630627    -0.72700
O1504       O  0.51403182  0.80955778  0.79120871    -0.73700
O1505       O  0.51599186  0.78760143  0.81630414    -0.62300
O1506       O  0.48048765  0.80756747  0.79120048    -0.70700
O1507       O  0.47904267  0.82638531  0.80877789    -0.70300
O1508       O  0.51377495  0.80730134  0.83271149    -0.61500
O1509       O  0.51215484  0.82872589  0.80834578    -0.74000
O1510       O  0.48107196  0.80461891  0.83309764    -0.72800
Cu1511     Cu  0.49820040  0.79673565  0.80309380     1.04600
Cu1512     Cu  0.49643148  0.81735335  0.82123397     1.04300
C1513       C  0.47681442  0.79104659  0.82880805     0.93500
C1514       C  0.51836311  0.82291794  0.79616396     0.92600
C1515       C  0.52065298  0.79481494  0.82849465     0.84800
C1516       C  0.47420807  0.82017260  0.79622457     0.91000
O1517       O  0.31710002  0.64537117  0.00831810    -0.72700
O1518       O  0.34581116  0.66226689  0.97582198    -0.73700
O1519       O  0.31774437  0.64426065  0.97538337    -0.62300
O1520       O  0.34522228  0.66293590  0.00924303    -0.70700
O1521       O  0.35888837  0.64111543  0.00962157    -0.70300
O1522       O  0.33233059  0.62297285  0.97672264    -0.61500
O1523       O  0.35990607  0.64071924  0.97669393    -0.74000
O1524       O  0.33124357  0.62375901  0.00954200    -0.72800
Cu1525     Cu  0.33101254  0.65454244  0.99217120     1.04600
Cu1526     Cu  0.34605918  0.63144464  0.99317646     1.04300
C1527       C  0.31953886  0.63182549  0.01391744     0.93500
C1528       C  0.35732865  0.65420298  0.97093957     0.92600
C1529       C  0.32095508  0.63043824  0.97078560     0.84800
C1530       C  0.35627029  0.65468878  0.01497647     0.91000
O1531       O  0.52282911  0.78595226  0.16346911    -0.72700
O1532       O  0.48841833  0.81255528  0.18197668    -0.73700
O1533       O  0.48977305  0.78567828  0.16214115    -0.62300
O1534       O  0.52188571  0.81341217  0.18324639    -0.70700
O1535       O  0.52177554  0.82804268  0.16212367    -0.70300
O1536       O  0.49067512  0.80097339  0.14147778    -0.61500
O1537       O  0.48908919  0.82724155  0.16090860    -0.74000
O1538       O  0.52338843  0.80143167  0.14288485    -0.72800
Cu1539     Cu  0.50572727  0.79884627  0.17351010     1.04600
Cu1540     Cu  0.50626007  0.81492066  0.15122265     1.04300
C1541       C  0.52830457  0.78938926  0.15009247     0.93500
C1542       C  0.48322956  0.82412764  0.17418045     0.92600
C1543       C  0.48531964  0.78898551  0.14833207     0.84800
C1544       C  0.52680937  0.82535046  0.17579713     0.91000
O1545       O  0.35556978  0.00385674  0.30992730    -0.72700
O1546       O  0.32859540  0.97106127  0.32930771    -0.73700
O1547       O  0.35335703  0.97085843  0.30791788    -0.62300
O1548       O  0.33123386  0.00400431  0.33149529    -0.70700
O1549       O  0.31407275  0.00665844  0.31246721    -0.70300
O1550       O  0.33699136  0.97269911  0.28815292    -0.61500
O1551       O  0.31166229  0.97339435  0.31004545    -0.74000
O1552       O  0.33893723  0.00630370  0.29043587    -0.72800
Cu1553     Cu  0.34274941  0.98733455  0.32024420     1.04600
Cu1554     Cu  0.32481283  0.98983174  0.29953191     1.04300
C1555       C  0.35138970  0.01057895  0.29735262     0.93500
C1556       C  0.31578555  0.96710996  0.32286408     0.92600
C1557       C  0.34882228  0.96625308  0.29457093     0.84800
C1558       C  0.31932129  0.01076890  0.32579372     0.91000
O1559       O  0.21375301  0.79769088  0.49006174    -0.72700
O1560       O  0.18842852  0.77619957  0.45657128    -0.73700
O1561       O  0.21542217  0.79609817  0.45713095    -0.62300
O1562       O  0.18686939  0.77797419  0.49005714    -0.70700
O1563       O  0.17209705  0.79900038  0.48806847    -0.70300
O1564       O  0.20001314  0.81675584  0.45526306    -0.61500
O1565       O  0.17359295  0.79722335  0.45504073    -0.74000
O1566       O  0.19847246  0.81844414  0.48826972    -0.72800
Cu1567     Cu  0.20162627  0.78619712  0.47348292     1.04600
Cu1568     Cu  0.18550825  0.80849703  0.47156915     1.04300
C1569       C  0.21007964  0.81147103  0.49440269     0.93500
C1570       C  0.17702216  0.78351927  0.45037506     0.92600
C1571       C  0.21230872  0.80943971  0.45125593     0.84800
C1572       C  0.17509708  0.78593781  0.49453908     0.91000
O1573       O  0.98199332  0.65623402  0.33078529    -0.72700
O1574       O  0.01275920  0.63155756  0.30660881    -0.73700
O1575       O  0.01501178  0.65399493  0.33015346    -0.62300
O1576       O  0.97985182  0.63393521  0.30736275    -0.70700
O1577       O  0.98086519  0.65203442  0.28905647    -0.70300
O1578       O  0.01644771  0.67257133  0.31246033    -0.61500
O1579       O  0.01428292  0.64965908  0.28833247    -0.74000
O1580       O  0.98283166  0.67479188  0.31300264    -0.72800
Cu1581     Cu  0.99739154  0.64332826  0.31927903     1.04600
Cu1582     Cu  0.99864124  0.66297092  0.30006159     1.04300
C1583       C  0.97713872  0.66925499  0.32558080     0.93500
C1584       C  0.01867401  0.63660002  0.29398167     0.92600
C1585       C  0.02153282  0.66628873  0.32496911     0.84800
C1586       C  0.97454181  0.63987389  0.29485776     0.91000
O1587       O  0.79893438  0.80815413  0.46351462    -0.72700
O1588       O  0.82896779  0.79051653  0.49545556    -0.73700
O1589       O  0.80118882  0.80911075  0.49666009    -0.62300
O1590       O  0.82690528  0.78927944  0.46196994    -0.70700
O1591       O  0.84086459  0.81088077  0.46117933    -0.70300
O1592       O  0.81603499  0.83011080  0.49446173    -0.61500
O1593       O  0.84299668  0.81201628  0.49372433    -0.74000
O1594       O  0.81388607  0.82913068  0.46193101    -0.72800
Cu1595     Cu  0.81345633  0.79841180  0.47941322     1.04600
Cu1596     Cu  0.82887100  0.82117479  0.47773429     1.04300
C1597       C  0.80174742  0.82164594  0.45784730     0.93500
C1598       C  0.84065286  0.79869288  0.49982095     0.92600
C1599       C  0.80492640  0.82285842  0.50104865     0.84800
C1600       C  0.83814627  0.79716794  0.45618949     0.91000
O1601       O  0.65512097  0.97188055  0.31157399    -0.72700
O1602       O  0.67412467  0.00714420  0.33576423    -0.73700
O1603       O  0.65045174  0.00491066  0.31271376    -0.62300
O1604       O  0.67892137  0.97416942  0.33436250    -0.70700
O1605       O  0.69621807  0.97772073  0.31562942    -0.70300
O1606       O  0.66814630  0.00829030  0.29440786    -0.61500
O1607       O  0.69178612  0.01044607  0.31739436    -0.74000
O1608       O  0.67226104  0.97546481  0.29269890    -0.72800
Cu1609     Cu  0.66402596  0.98939585  0.32424011     1.04600
Cu1610     Cu  0.68269631  0.99305276  0.30439870     1.04300
C1611       C  0.66057686  0.96816357  0.29829549     0.93500
C1612       C  0.68597736  0.01438922  0.33049592     0.92600
C1613       C  0.65486273  0.01157505  0.30017299     0.84800
C1614       C  0.69222735  0.97127828  0.32838241     0.91000
O1615       O  0.98994512  0.68074676  0.64398575    -0.72700
O1616       O  0.02138820  0.65451224  0.66798243    -0.73700
O1617       O  0.02343504  0.67984155  0.64600650    -0.62300
O1618       O  0.98803058  0.65557975  0.66575333    -0.70700
O1619       O  0.98863050  0.63873962  0.64624434    -0.70300
O1620       O  0.02361386  0.66215720  0.62728615    -0.61500
O1621       O  0.02143188  0.63757183  0.64858097    -0.74000
O1622       O  0.99101051  0.66324103  0.62512141    -0.72800
Cu1623     Cu  0.00567847  0.66832385  0.65667732     1.04600
Cu1624     Cu  0.00621313  0.64991793  0.63620619     1.04300
C1625       C  0.98538391  0.67580605  0.63071361     0.93500
C1626       C  0.02638803  0.64183768  0.66189496     0.92600
C1627       C  0.02915872  0.67454430  0.63334276     0.84800
C1628       C  0.98267112  0.64343793  0.65895373     0.91000
O1629       O  0.67038773  0.96696123  0.63666716    -0.72700
O1630       O  0.65381003  0.99739579  0.66782265    -0.73700
O1631       O  0.67394784  0.99945908  0.64194518    -0.62300
O1632       O  0.65013592  0.96485584  0.66205831    -0.70700
O1633       O  0.66979086  0.95958450  0.67782680    -0.70300
O1634       O  0.69385221  0.99457541  0.65752049    -0.61500
O1635       O  0.67344705  0.99229616  0.68372690    -0.74000
O1636       O  0.69020494  0.96199200  0.65230506    -0.72800
Cu1637     Cu  0.66136287  0.98237906  0.65166437     1.04600
Cu1638     Cu  0.68252001  0.97700257  0.66843171     1.04300
C1639       C  0.68287628  0.95945788  0.63963879     0.93500
C1640       C  0.66096591  0.99975460  0.68063054     0.92600
C1641       C  0.68783649  0.00234083  0.64630883     0.84800
C1642       C  0.65624951  0.95634319  0.67257802     0.91000
O1643       O  0.69595512  0.65386412  0.00181326    -0.72700
O1644       O  0.66990883  0.67463742  0.96961220    -0.73700
O1645       O  0.69371806  0.65229739  0.96900271    -0.62300
O1646       O  0.67219264  0.67650105  0.00263047    -0.70700
O1647       O  0.69004941  0.69493400  0.00006874    -0.70300
O1648       O  0.71178101  0.67045185  0.96623598    -0.61500
O1649       O  0.68756558  0.69323695  0.96698773    -0.74000
O1650       O  0.71432322  0.67181976  0.99942080    -0.72800
Cu1651     Cu  0.68239335  0.66369161  0.98585703     1.04600
Cu1652     Cu  0.70158423  0.68329150  0.98314995     1.04300
C1653       C  0.70915448  0.65938303  0.00576081     0.93500
C1654       C  0.67459662  0.68708039  0.96302031     0.92600
C1655       C  0.70583728  0.65745626  0.96210332     0.84800
C1656       C  0.67769496  0.68974872  0.00655164     0.91000
C1657       C  0.05280524  0.26845419  0.62538484    -0.12000
C1658       C  0.05051200  0.25246121  0.62711791     0.05000
C1659       C  0.04201199  0.24691451  0.63988653    -0.07300
C1660       C  0.03451087  0.25751575  0.64980882    -0.08100
C1661       C  0.03537952  0.27367548  0.64707797    -0.02600
C1662       C  0.04538770  0.27908617  0.63516574     0.04200
N1663       N  0.04726097  0.29531010  0.63198408     0.66700
H1664       H  0.05929007  0.27278302  0.61548898     0.15600
H1665       H  0.02707549  0.25303250  0.65891576     0.15300
N1666       N  0.04000563  0.23055759  0.64216840     0.74400
O1667       O  0.05890612  0.30235657  0.63746423    -0.39000
O1668       O  0.03989199  0.30130930  0.62080284    -0.39000
O1669       O  0.05116607  0.22250585  0.64730043    -0.39700
O1670       O  0.02806334  0.22385029  0.63690220    -0.39700
C1671       C  0.12974602  0.16582772  0.52336642    -0.12000
C1672       C  0.14141338  0.17470685  0.51622324     0.05000
C1673       C  0.14287013  0.19063768  0.52027863    -0.07300
C1674       C  0.13198733  0.19747245  0.53040639    -0.08100
C1675       C  0.11971787  0.18867063  0.53654103    -0.02600
C1676       C  0.11896348  0.17263264  0.53334414     0.04200
N1677       N  0.10691522  0.16318182  0.53977013     0.66700
H1678       H  0.12860408  0.15347686  0.52078358     0.15600
H1679       H  0.13255027  0.20992447  0.53269180     0.15300
N1680       N  0.15449996  0.20027786  0.51338835     0.74400
O1681       O  0.09545603  0.15935590  0.53144359    -0.39000
O1682       O  0.10924756  0.15621468  0.55244924    -0.39000
O1683       O  0.15096193  0.20876969  0.50196501    -0.39700
O1684       O  0.16692770  0.20292384  0.52072606    -0.39700
C1685       C  0.04228992  0.27284153  0.35333852    -0.12000
C1686       C  0.03811529  0.25716108  0.35472893     0.05000
C1687       C  0.02574437  0.25136049  0.34565369    -0.07300
C1688       C  0.01752298  0.26136357  0.33575903    -0.08100
C1689       C  0.02109433  0.27727789  0.33505099    -0.02600
C1690       C  0.03378630  0.28296516  0.34380900     0.04200
N1691       N  0.03850734  0.29886497  0.34291153     0.66700
H1692       H  0.05172944  0.27749471  0.36035567     0.15600
H1693       H  0.00780574  0.25676514  0.32909134     0.15300
N1694       N  0.02127395  0.23536896  0.34652630     0.74400
O1695       O  0.03207383  0.30879203  0.35160987    -0.39000
O1696       O  0.05163436  0.30190979  0.33715140    -0.39000
O1697       O  0.00911955  0.23166072  0.35383285    -0.39700
O1698       O  0.02747695  0.22562455  0.33747328    -0.39700
C1699       C  0.14429373  0.19929541  0.45801462    -0.12000
C1700       C  0.14404780  0.18395114  0.45242953     0.05000
C1701       C  0.13411909  0.18025261  0.43987991    -0.07300
C1702       C  0.12441154  0.19178522  0.43352464    -0.08100
C1703       C  0.12408714  0.20690966  0.43973871    -0.02600
C1704       C  0.13430371  0.21065418  0.45199637     0.04200
N1705       N  0.13459371  0.22592259  0.45858765     0.66700
H1706       H  0.15174325  0.20234738  0.46776674     0.15600
H1707       H  0.11658241  0.18870464  0.42408705     0.15300
N1708       N  0.13375440  0.16490112  0.43347344     0.74400
O1709       O  0.12745697  0.22845410  0.47113143    -0.39000
O1710       O  0.14484041  0.23543743  0.45416380    -0.39000
O1711       O  0.12232207  0.15614624  0.43628753    -0.39700
O1712       O  0.14287949  0.16146890  0.42252940    -0.39700
C1713       C  0.95778880  0.28540707  0.63113346    -0.12000
C1714       C  0.97085783  0.27770196  0.63711233     0.05000
C1715       C  0.97326473  0.26190829  0.63331045    -0.07300
C1716       C  0.96277415  0.25424029  0.62344452    -0.08100
C1717       C  0.94965703  0.26192888  0.61736327    -0.02600
C1718       C  0.94713225  0.27766942  0.62148208     0.04200
N1719       N  0.93427429  0.28623372  0.61538046     0.66700
H1720       H  0.95582456  0.29758365  0.63399378     0.15600
H1721       H  0.96501374  0.24216299  0.62038280     0.15300
N1722       N  0.98673460  0.25374709  0.63868109     0.74400
O1723       O  0.92260459  0.28876189  0.62388878    -0.39000
O1724       O  0.93599104  0.29401556  0.60308484    -0.39000
O1725       O  0.98563648  0.24483029  0.65026159    -0.39700
O1726       O  0.99853192  0.25280494  0.63002626    -0.39700
C1727       C  0.84450033  0.21132596  0.54890836    -0.12000
C1728       C  0.84595033  0.22682152  0.54400526     0.05000
C1729       C  0.83553897  0.23254839  0.53271261    -0.07300
C1730       C  0.82511298  0.22240915  0.52534477    -0.08100
C1731       C  0.82491619  0.20648021  0.52893766    -0.02600
C1732       C  0.83409278  0.20113436  0.54151895     0.04200
N1733       N  0.83323048  0.18535698  0.54672860     0.66700
H1734       H  0.85227409  0.20678393  0.55778520     0.15600
H1735       H  0.81797178  0.22685248  0.51591089     0.15300
N1736       N  0.83578707  0.24855257  0.52823123     0.74400
O1737       O  0.84381490  0.17589312  0.54296413    -0.39000
O1738       O  0.82442160  0.18208813  0.55796888    -0.39000
O1739       O  0.84198697  0.25237374  0.51552810    -0.39700
O1740       O  0.82681894  0.25802846  0.53496726    -0.39700
C1741       C  0.93615061  0.27644670  0.35277968    -0.12000
C1742       C  0.93771465  0.26023284  0.35142577     0.05000
C1743       C  0.94784315  0.25413723  0.34010518    -0.07300
C1744       C  0.95676019  0.26420660  0.33096286    -0.08100
C1745       C  0.95607876  0.28042740  0.33302909    -0.02600
C1746       C  0.94526015  0.28656573  0.34377322     0.04200
N1747       N  0.94332489  0.30298253  0.34566225     0.66700
H1748       H  0.92834220  0.28131499  0.36144896     0.15600
H1749       H  0.96488029  0.25918830  0.32267277     0.15300
N1750       N  0.94938592  0.23771413  0.33791492     0.74400
O1751       O  0.93265326  0.30983549  0.33826795    -0.39000
O1752       O  0.94951808  0.30969614  0.35713827    -0.39000
O1753       O  0.94130407  0.23106952  0.32763079    -0.39700
O1754       O  0.96105624  0.23074743  0.34347118    -0.39700
C1755       C  0.84087227  0.22192023  0.44428896    -0.12000
C1756       C  0.85691814  0.21967981  0.44601215     0.05000
C1757       C  0.86231089  0.20868097  0.45691953    -0.07300
C1758       C  0.85172084  0.20034135  0.46596971    -0.08100
C1759       C  0.83561451  0.20281152  0.46468746    -0.02600
C1760       C  0.83020822  0.21378609  0.45362000     0.04200
N1761       N  0.81400831  0.21697867  0.45177351     0.66700
H1762       H  0.83659182  0.23046009  0.43600567     0.15600
H1763       H  0.85626565  0.19199510  0.47430176     0.15300
N1764       N  0.87855283  0.20565524  0.45880970     0.74400
O1765       O  0.80805627  0.22835383  0.45891158    -0.39000
O1766       O  0.80669123  0.21086791  0.44062753    -0.39000
O1767       O  0.88557676  0.21103737  0.47050702    -0.39700
O1768       O  0.88485279  0.19498767  0.45092949    -0.39700
C1769       C  0.04508411  0.61560979  0.26492285    -0.12000
C1770       C  0.05397519  0.60648088  0.27516697     0.05000
C1771       C  0.05197882  0.60842790  0.29126280    -0.07300
C1772       C  0.04085383  0.61877362  0.29685867    -0.08100
C1773       C  0.03126010  0.62726935  0.28678238    -0.02600
C1774       C  0.03367571  0.62595666  0.27059324     0.04200
N1775       N  0.02382196  0.63388418  0.25981474     0.66700
H1776       H  0.04625737  0.61392570  0.25245932     0.15600
H1777       H  0.03946543  0.61986717  0.30936945     0.15300
N1778       N  0.06089058  0.59957944  0.30214690     0.74400
O1779       O  0.02880971  0.64584536  0.25293809    -0.39000
O1780       O  0.01184191  0.62711205  0.25470594    -0.39000
O1781       O  0.07330016  0.60526568  0.30752362    -0.39700
O1782       O  0.05465805  0.58818376  0.30897117    -0.39700
C1783       C  0.15758859  0.50805534  0.20793007    -0.12000
C1784       C  0.15902474  0.50958442  0.19171111     0.05000
C1785       C  0.15015978  0.52125764  0.18412339    -0.07300
C1786       C  0.13962352  0.53042959  0.19251801    -0.08100
C1787       C  0.13756024  0.52822349  0.20844637    -0.02600
C1788       C  0.14681842  0.51718274  0.21625906     0.04200
N1789       N  0.14454787  0.51435029  0.23244326     0.66700
H1790       H  0.16399210  0.49913409  0.21394485     0.15600
H1791       H  0.13238085  0.53862886  0.18641515     0.15300
N1792       N  0.15112285  0.52352701  0.16772381     0.74400
O1793       O  0.13473269  0.50432934  0.23674402    -0.39000
O1794       O  0.15026133  0.52361462  0.24228423    -0.39000
O1795       O  0.14025423  0.51865556  0.15914916    -0.39700
O1796       O  0.16060699  0.53337517  0.16242258    -0.39700
C1797       C  0.04974059  0.34590548  0.29168885    -0.12000
C1798       C  0.05052644  0.34696990  0.27554451     0.05000
C1799       C  0.04058808  0.33769360  0.26642189    -0.07300
C1800       C  0.02920688  0.32841259  0.27364998    -0.08100
C1801       C  0.02754077  0.32837463  0.28994262    -0.02600
C1802       C  0.03843761  0.33680197  0.29893535     0.04200
N1803       N  0.03813241  0.33656258  0.31549114     0.66700
H1804       H  0.05730444  0.35307953  0.29878129     0.15600
H1805       H  0.02114224  0.32192026  0.26648283     0.15300
N1806       N  0.04100119  0.33872915  0.24987038     0.74400
O1807       O  0.04887751  0.32952191  0.32256145    -0.39000
O1808       O  0.03056904  0.34695741  0.32258540    -0.39000
O1809       O  0.05157322  0.33178263  0.24243152    -0.39700
O1810       O  0.03245669  0.34848637  0.24298269    -0.39700
C1811       C  0.14149530  0.42768648  0.20999574    -0.12000
C1812       C  0.12800161  0.42414639  0.20152237     0.05000
C1813       C  0.12676253  0.42943797  0.18609254    -0.07300
C1814       C  0.13837510  0.43876978  0.17974495    -0.08100
C1815       C  0.15146351  0.44327027  0.18839581    -0.02600
C1816       C  0.15318245  0.43725150  0.20365274     0.04200
N1817       N  0.16615086  0.44136873  0.21319207     0.66700
H1818       H  0.14254951  0.42380254  0.22197341     0.15600
H1819       H  0.13689249  0.44274233  0.16784959     0.15300
N1820       N  0.11367718  0.42548934  0.17664364     0.74400
O1821       O  0.16546797  0.45357988  0.22132760    -0.39000
O1822       O  0.17626468  0.43118364  0.21633975    -0.39000
O1823       O  0.10405410  0.43596246  0.17294722    -0.39700
O1824       O  0.11386528  0.41289449  0.16909307    -0.39700
C1825       C  0.93863851  0.61521120  0.28850596    -0.12000
C1826       C  0.93885397  0.61326577  0.27242755     0.05000
C1827       C  0.94937660  0.62200219  0.26343428    -0.07300
C1828       C  0.96042364  0.63152598  0.27083201    -0.08100
C1829       C  0.96113782  0.63229869  0.28712577    -0.02600
C1830       C  0.94960575  0.62458128  0.29590354     0.04200
N1831       N  0.94896045  0.62586890  0.31240590     0.66700
H1832       H  0.93054689  0.60854658  0.29549013     0.15600
H1833       H  0.96909686  0.63742815  0.26388891     0.15300
N1834       N  0.95010476  0.61994120  0.24699815     0.74400
O1835       O  0.93874830  0.63457705  0.31833852    -0.39000
O1836       O  0.95505896  0.61532797  0.32061213    -0.39000
O1837       O  0.94076959  0.62722136  0.23832464    -0.39700
O1838       O  0.95868925  0.60945631  0.24133193    -0.39700
C1839       C  0.85913551  0.52889444  0.20132977    -0.12000
C1840       C  0.87073713  0.53544300  0.19199097     0.05000
C1841       C  0.87057655  0.53250946  0.17593600    -0.07300
C1842       C  0.85900422  0.52304863  0.16950549    -0.08100
C1843       C  0.84768429  0.51581258  0.17884045    -0.02600
C1844       C  0.84784775  0.51889829  0.19501948     0.04200
N1845       N  0.83759194  0.51102922  0.20541469     0.66700
H1846       H  0.85945821  0.53071622  0.21383088     0.15600
H1847       H  0.85923340  0.52099879  0.15704915     0.15300
N1848       N  0.88229921  0.53882975  0.16603428     0.74400
O1849       O  0.84167452  0.49806220  0.21099192    -0.39000
O1850       O  0.82678104  0.51856388  0.21187746    -0.39000
O1851       O  0.89365288  0.53042151  0.16202521    -0.39700
O1852       O  0.87969142  0.55138244  0.15887993    -0.39700
C1853       C  0.94073579  0.35545293  0.28813800    -0.12000
C1854       C  0.93912985  0.35445737  0.27199160     0.05000
C1855       C  0.94667072  0.34226195  0.26400656    -0.07300
C1856       C  0.95621390  0.33182404  0.27221262    -0.08100
C1857       C  0.95858350  0.33341267  0.28830756    -0.02600
C1858       C  0.95030558  0.34519059  0.29632235     0.04200
N1859       N  0.95167684  0.34718937  0.31273598     0.66700
H1860       H  0.93489875  0.36473739  0.29446913     0.15600
H1861       H  0.96242523  0.32288144  0.26576966     0.15300
N1862       N  0.94597765  0.34118575  0.24747802     0.74400
O1863       O  0.96092849  0.35730131  0.31800509    -0.39000
O1864       O  0.94129659  0.34169171  0.32149599    -0.39000
O1865       O  0.95659823  0.34731664  0.23944868    -0.39700
O1866       O  0.93692311  0.33145528  0.24125140    -0.39700
C1867       C  0.87229846  0.43500881  0.17295905    -0.12000
C1868       C  0.86975643  0.42926361  0.18796311     0.05000
C1869       C  0.85572122  0.43295577  0.19555919    -0.07300
C1870       C  0.84495571  0.44289309  0.18837711    -0.08100
C1871       C  0.84787945  0.44942677  0.17368197    -0.02600
C1872       C  0.86161744  0.44496188  0.16576805     0.04200
N1873       N  0.86537794  0.45095192  0.15076475     0.66700
H1874       H  0.88305774  0.43220994  0.16693650     0.15600
H1875       H  0.83450951  0.44604717  0.19474224     0.15300
N1876       N  0.85283707  0.42795863  0.21109688     0.74400
O1877       O  0.87473312  0.46221261  0.14965817    -0.39000
O1878       O  0.86234314  0.44290462  0.13888249    -0.39000
O1879       O  0.85676601  0.43664231  0.22225245    -0.39700
O1880       O  0.84340784  0.41696915  0.21347482    -0.39700
C1881       C  0.74161657  0.63782248  0.02653709    -0.12000
C1882       C  0.73314656  0.62968413  0.03784322     0.05000
C1883       C  0.71721370  0.63304638  0.03977264    -0.07300
C1884       C  0.70988254  0.64349986  0.02969073    -0.08100
C1885       C  0.71814145  0.65095106  0.01776875    -0.02600
C1886       C  0.73433806  0.64858752  0.01668627     0.04200
N1887       N  0.74335882  0.65608635  0.00497393     0.66700
H1888       H  0.75393486  0.63540922  0.02499593     0.15600
H1889       H  0.69741545  0.64531540  0.03080097     0.15300
N1890       N  0.70798948  0.62497934  0.05095187     0.74400
O1891       O  0.75037365  0.66857283  0.00822658    -0.39000
O1892       O  0.74734508  0.64848359  0.99308985    -0.39000
O1893       O  0.70348111  0.63209517  0.06295398    -0.39700
O1894       O  0.70152926  0.61232985  0.04720923    -0.39700
C1895       C  0.79473314  0.53067687  0.13290879    -0.12000
C1896       C  0.78871359  0.51756368  0.14051322     0.05000
C1897       C  0.77253727  0.51485664  0.14012799    -0.07300
C1898       C  0.76287411  0.52474533  0.13151856    -0.08100
C1899       C  0.76896696  0.53747358  0.12335424    -0.02600
C1900       C  0.78502715  0.54069273  0.12445631     0.04200
N1901       N  0.79189448  0.55318293  0.11594183     0.66700
H1902       H  0.80718346  0.53283848  0.13304421     0.15600
H1903       H  0.75056425  0.52202492  0.13060917     0.15300
N1904       N  0.76594656  0.50126352  0.14704060     0.74400
O1905       O  0.79561356  0.56554019  0.12295188    -0.39000
O1906       O  0.79722402  0.55063648  0.10253548    -0.39000
O1907       O  0.75876575  0.50247028  0.15974842    -0.39700
O1908       O  0.76415833  0.48917545  0.13889523    -0.39700
C1909       C  0.70058988  0.36201365  0.02609336    -0.12000
C1910       C  0.71569419  0.35633189  0.02804278     0.05000
C1911       C  0.72005938  0.34242869  0.02062705    -0.07300
C1912       C  0.70957261  0.33488803  0.01059287    -0.08100
C1913       C  0.69460349  0.34105108  0.00780423    -0.02600
C1914       C  0.69004452  0.35457578  0.01616707     0.04200
N1915       N  0.67503824  0.36146564  0.01422153     0.66700
H1916       H  0.69721931  0.37283192  0.03165585     0.15600
H1917       H  0.71337327  0.32447779  0.00459241     0.15300
N1918       N  0.73534796  0.33624096  0.02274554     0.74400
O1919       O  0.66459255  0.35882024  0.02414786    -0.39000
O1920       O  0.67345226  0.37277844  0.00500726    -0.39000
O1921       O  0.73902637  0.33020444  0.03558903    -0.39700
O1922       O  0.74581835  0.33926893  0.01295812    -0.39700
C1923       C  0.78328294  0.43506666  0.11361139    -0.12000
C1924       C  0.76754712  0.43519534  0.11772693     0.05000
C1925       C  0.76280998  0.44339576  0.13103427    -0.07300
C1926       C  0.77376321  0.45176864  0.13976798    -0.08100
C1927       C  0.78947687  0.45239513  0.13521156    -0.02600
C1928       C  0.79422830  0.44362520  0.12212077     0.04200
N1929       N  0.81004417  0.44351547  0.11706243     0.66700
H1930       H  0.78697007  0.42896545  0.10322547     0.15600
H1931       H  0.76981413  0.45834972  0.14974519     0.15300
N1932       N  0.74679673  0.44370985  0.13545244     0.74400
O1933       O  0.81894895  0.43270737  0.12149749    -0.39000
O1934       O  0.81398316  0.45185874  0.10567430    -0.39000
O1935       O  0.74058790  0.43166088  0.14107644    -0.39700
O1936       O  0.73836514  0.45509825  0.13156783    -0.39700
C1937       C  0.73412572  0.63817614  0.93359008    -0.12000
C1938       C  0.72470362  0.62612769  0.92783780     0.05000
C1939       C  0.70875834  0.62608808  0.93163876    -0.07300
C1940       C  0.70293452  0.63683064  0.94228602    -0.08100
C1941       C  0.71255822  0.64802766  0.94924164    -0.02600
C1942       C  0.72816656  0.64922842  0.94411335     0.04200
N1943       N  0.73831427  0.66101902  0.94995975     0.66700
H1944       H  0.74642460  0.63848224  0.93065011     0.15600
H1945       H  0.69068032  0.63615447  0.94534789     0.15300
N1946       N  0.69829117  0.61507039  0.92488274     0.74400
O1947       O  0.74758781  0.65775753  0.96083622    -0.39000
O1948       O  0.74065996  0.67308077  0.94193931    -0.39000
O1949       O  0.69238315  0.60461516  0.93330338    -0.39700
O1950       O  0.69209218  0.61816878  0.91196752    -0.39700
C1951       C  0.82115565  0.53703010  0.86736445    -0.12000
C1952       C  0.80779609  0.54550459  0.86326570     0.05000
C1953       C  0.80208782  0.54421145  0.84794727    -0.07300
C1954       C  0.80937462  0.53407260  0.83741773    -0.08100
C1955       C  0.82220692  0.52490373  0.84184173    -0.02600
C1956       C  0.82822633  0.52668562  0.85702872     0.04200
N1957       N  0.84075153  0.51727740  0.86263865     0.66700
H1958       H  0.82587581  0.53792799  0.87904107     0.15600
H1959       H  0.80452877  0.53296132  0.82581292     0.15300
N1960       N  0.78823549  0.55205985  0.84319836     0.74400
O1961       O  0.85429896  0.52288447  0.86318566    -0.39000
O1962       O  0.83774578  0.50500398  0.87010771    -0.39000
O1963       O  0.78924652  0.56370086  0.83432657    -0.39700
O1964       O  0.77530467  0.54529394  0.84470447    -0.39700
C1965       C  0.69103428  0.37320740  0.92586787    -0.12000
C1966       C  0.70671184  0.37028694  0.92257460     0.05000
C1967       C  0.71330885  0.35599111  0.92725619    -0.07300
C1968       C  0.70458016  0.34566787  0.93639555    -0.08100
C1969       C  0.68922910  0.34922943  0.94079392    -0.02600
C1970       C  0.68223344  0.36285754  0.93470885     0.04200
N1971       N  0.66624574  0.36651266  0.93743923     0.66700
H1972       H  0.68564554  0.38397507  0.92194768     0.15600
H1973       H  0.71012677  0.33511327  0.94062716     0.15300
N1974       N  0.72909506  0.35221940  0.92375257     0.74400
O1975       O  0.66276003  0.37623745  0.94786529    -0.39000
O1976       O  0.65628142  0.36308783  0.92723252    -0.39000
O1977       O  0.73949752  0.35456315  0.93382330    -0.39700
O1978       O  0.73200381  0.34349152  0.91232575    -0.39700
C1979       C  0.81417923  0.44171775  0.86095938    -0.12000
C1980       C  0.79801262  0.44078607  0.85934600     0.05000
C1981       C  0.79074899  0.44835165  0.84678724    -0.07300
C1982       C  0.79968602  0.45720944  0.83647819    -0.08100
C1983       C  0.81585389  0.45882927  0.83848539    -0.02600
C1984       C  0.82315483  0.45050931  0.85067788     0.04200
N1985       N  0.83958977  0.45107106  0.85307519     0.66700
H1986       H  0.81988388  0.43587420  0.87061442     0.15600
H1987       H  0.79373368  0.46348338  0.82726451     0.15300
N1988       N  0.77421130  0.44840773  0.84519433     0.74400
O1989       O  0.84509995  0.46041145  0.86296600    -0.39000
O1990       O  0.84794180  0.44002196  0.84817631    -0.39000
O1991       O  0.76644712  0.45941017  0.85106759    -0.39700
O1992       O  0.76789458  0.43962616  0.83528280    -0.39700
C1993       C  0.04725555  0.62187119  0.66056363    -0.12000
C1994       C  0.03816788  0.63185547  0.66979385     0.05000
C1995       C  0.04021307  0.63143074  0.68608812    -0.07300
C1996       C  0.05085076  0.62086734  0.69270658    -0.08100
C1997       C  0.05936658  0.61049053  0.68340095    -0.02600
C1998       C  0.05764532  0.61123786  0.66716570     0.04200
N1999       N  0.06634262  0.60118077  0.65719162     0.66700
H2000       H  0.04613237  0.62210274  0.64798497     0.15600
H2001       H  0.05176511  0.62012955  0.70528284     0.15300
N2002       N  0.03074744  0.64066763  0.69613292     0.74400
O2003       O  0.05975794  0.58953580  0.65113359    -0.39000
O2004       O  0.07913510  0.60584165  0.65175265    -0.39000
O2005       O  0.01847016  0.63490431  0.70171174    -0.39700
O2006       O  0.03625818  0.65295766  0.70198148    -0.39700
C2007       C  0.14173318  0.53408810  0.76285157    -0.12000
C2008       C  0.12910846  0.54020553  0.77124546     0.05000
C2009       C  0.12781108  0.53659503  0.78714357    -0.07300
C2010       C  0.13834979  0.52637981  0.79404772    -0.08100
C2011       C  0.15029211  0.51919990  0.78551275    -0.02600
C2012       C  0.15227432  0.52357362  0.76979364     0.04200
N2013       N  0.16404755  0.51661691  0.76039114     0.66700
H2014       H  0.14282360  0.53664188  0.75052853     0.15600
H2015       H  0.13680872  0.52372560  0.80629969     0.15300
N2016       N  0.11564403  0.54299834  0.79647730     0.74400
O2017       O  0.16105501  0.50412546  0.75329148    -0.39000
O2018       O  0.17550751  0.52471360  0.75612703    -0.39000
O2019       O  0.10457756  0.53433422  0.80068730    -0.39700
O2020       O  0.11805607  0.55555664  0.80369787    -0.39700
C2021       C  0.03779514  0.33609348  0.72043815    -0.12000
C2022       C  0.04783460  0.34714340  0.71402795     0.05000
C2023       C  0.05013730  0.34738872  0.69787134    -0.07300
C2024       C  0.04150746  0.33736741  0.68826777    -0.08100
C2025       C  0.03082460  0.32665707  0.69458424    -0.02600
C2026       C  0.02958265  0.32566729  0.71096781     0.04200
N2027       N  0.01952469  0.31465718  0.71825295     0.66700
H2028       H  0.03595778  0.33586051  0.73287366     0.15600
H2029       H  0.04295538  0.33819773  0.67581903     0.15300
N2030       N  0.06060112  0.35833710  0.69104400     0.74400
O2031       O  0.02520084  0.30220167  0.72359102    -0.39000
O2032       O  0.00611807  0.31887136  0.72247101    -0.39000
O2033       O  0.07489123  0.35509771  0.69017420    -0.39700
O2034       O  0.05607689  0.37204793  0.68829916    -0.39700
C2035       C  0.14579438  0.44010325  0.75832089    -0.12000
C2036       C  0.13519423  0.43020139  0.76567674     0.05000
C2037       C  0.13535193  0.42908641  0.78196144    -0.07300
C2038       C  0.14467577  0.43929510  0.79066109    -0.08100
C2039       C  0.15444574  0.45018988  0.78329737    -0.02600
C2040       C  0.15570497  0.44973403  0.76694858     0.04200
N2041       N  0.16599687  0.45986598  0.75880459     0.66700
H2042       H  0.14581782  0.44095018  0.74577264     0.15600
H2043       H  0.14388689  0.43905431  0.80320087     0.15300
N2044       N  0.12525532  0.41847999  0.78979323     0.74400
O2045       O  0.17933892  0.45498453  0.75511967    -0.39000
O2046       O  0.16050863  0.47164342  0.75198689    -0.39000
O2047       O  0.12935557  0.40447245  0.79154242    -0.39700
O2048       O  0.11151917  0.42250399  0.79302802    -0.39700
C2049       C  0.94891123  0.61543933  0.66405508    -0.12000
C2050       C  0.94863082  0.61376941  0.68019600     0.05000
C2051       C  0.95861532  0.62294904  0.68940069    -0.07300
C2052       C  0.96905365  0.63322665  0.68227440    -0.08100
C2053       C  0.96990962  0.63433570  0.66604320    -0.02600
C2054       C  0.95934573  0.62562872  0.65690504     0.04200
N2055       N  0.95907232  0.62690743  0.64036476     0.66700
H2056       H  0.94127938  0.60834369  0.65687290     0.15600
H2057       H  0.97718298  0.63969867  0.68948703     0.15300
N2058       N  0.95936166  0.62087743  0.70582995     0.74400
O2059       O  0.96609192  0.61685203  0.63228884    -0.39000
O2060       O  0.94889537  0.63539254  0.63403057    -0.39000
O2061       O  0.96993867  0.61243510  0.71154070    -0.39700
O2062       O  0.95191804  0.63002956  0.71455599    -0.39700
C2063       C  0.88157610  0.54468890  0.78330511    -0.12000
C2064       C  0.87837392  0.54596617  0.76740845     0.05000
C2065       C  0.86586021  0.53749221  0.76106561    -0.07300
C2066       C  0.85731267  0.52738816  0.77056779    -0.08100
C2067       C  0.86128075  0.52523674  0.78625922    -0.02600
C2068       C  0.87329859  0.53440324  0.79272571     0.04200
N2069       N  0.87755517  0.53318051  0.80871980     0.66700
H2070       H  0.89120831  0.55118653  0.78832951     0.15600
H2071       H  0.84813993  0.52041334  0.76534927     0.15300
N2072       N  0.86282228  0.53762207  0.74476542     0.74400
O2073       O  0.88896289  0.52472108  0.81247948    -0.39000
O2074       O  0.87261594  0.54322718  0.81821338    -0.39000
O2075       O  0.86974086  0.52799069  0.73611005    -0.39700
O2076       O  0.85105179  0.54476786  0.73967007    -0.39700
C2077       C  0.94682660  0.34169179  0.69895857    -0.12000
C2078       C  0.94415357  0.35465252  0.68935458     0.05000
C2079       C  0.95104841  0.35487417  0.67449315    -0.07300
C2080       C  0.96134405  0.34307706  0.67011475    -0.08100
C2081       C  0.96507490  0.33068302  0.68012073    -0.02600
C2082       C  0.95712453  0.32972198  0.69447441     0.04200
N2083       N  0.95977656  0.31708507  0.70490609     0.66700
H2084       H  0.94153147  0.34122052  0.71041222     0.15600
H2085       H  0.96670173  0.34387361  0.65871047     0.15300
N2086       N  0.94769858  0.36699206  0.66360331     0.74400
O2087       O  0.96956181  0.31861972  0.71571924    -0.39000
O2088       O  0.95009985  0.30606035  0.70544527    -0.39000
O2089       O  0.95824921  0.37652112  0.65996268    -0.39700
O2090       O  0.93588555  0.36575995  0.65499118    -0.39700
C2091       C  0.86194259  0.44143663  0.76075521    -0.12000
C2092       C  0.87085400  0.43075566  0.76934845     0.05000
C2093       C  0.87031278  0.43133982  0.78565548    -0.07300
C2094       C  0.86224151  0.44331722  0.79305163    -0.08100
C2095       C  0.85467245  0.45500411  0.78454089    -0.02600
C2096       C  0.85378738  0.45354458  0.76821673     0.04200
N2097       N  0.84610889  0.46504278  0.75899116     0.66700
H2098       H  0.86248136  0.44125886  0.74814254     0.15600
H2099       H  0.86260359  0.44392128  0.80566388     0.15300
N2100       N  0.87899626  0.42058073  0.79487932     0.74400
O2101       O  0.85375567  0.47650793  0.75395083    -0.39000
O2102       O  0.83305150  0.46194301  0.75305453    -0.39000
O2103       O  0.89237860  0.42433012  0.79959030    -0.39700
O2104       O  0.87200935  0.40938595  0.80128482    -0.39700
C2105       C  0.29227554  0.62614141  0.02049627    -0.12000
C2106       C  0.30800493  0.62499563  0.02454087     0.05000
C2107       C  0.31229191  0.61622855  0.03769652    -0.07300
C2108       C  0.30087709  0.60816661  0.04608147    -0.08100
C2109       C  0.28528636  0.60825778  0.04119943    -0.02600
C2110       C  0.28097673  0.61761180  0.02842613     0.04200
N2111       N  0.26527481  0.61815612  0.02299778     0.66700
H2112       H  0.28880719  0.63301212  0.01046961     0.15600
H2113       H  0.30440002  0.60097699  0.05585741     0.15300
N2114       N  0.32816481  0.61523012  0.04252202     0.74400
O2115       O  0.25650764  0.62903209  0.02753419    -0.39000
O2116       O  0.26157772  0.61051641  0.01103113    -0.39000
O2117       O  0.33288193  0.62360367  0.05360685    -0.39700
O2118       O  0.33647608  0.60404629  0.03786753    -0.39700
C2119       C  0.20458778  0.51531029  0.13226038    -0.12000
C2120       C  0.21057378  0.50515544  0.14367394     0.05000
C2121       C  0.22688615  0.50475669  0.14599889    -0.07300
C2122       C  0.23672479  0.51362468  0.13652514    -0.08100
C2123       C  0.23072753  0.52327047  0.12489250    -0.02600
C2124       C  0.21450748  0.52438653  0.12298801     0.04200
N2125       N  0.20803289  0.53386112  0.11096633     0.66700
H2126       H  0.19217136  0.51594839  0.13025173     0.15600
H2127       H  0.24920698  0.51252755  0.13789976     0.15300
N2128       N  0.23381980  0.49467726  0.15722281     0.74400
O2129       O  0.20675821  0.52849556  0.09738477    -0.39000
O2130       O  0.20560631  0.54815052  0.11340816    -0.39000
O2131       O  0.23878616  0.48150241  0.15300938    -0.39700
O2132       O  0.23821078  0.50024485  0.17005485    -0.39700
C2133       C  0.30381811  0.33066635  0.02072194    -0.12000
C2134       C  0.29344754  0.32097150  0.01265414     0.05000
C2135       C  0.27743399  0.32166672  0.01644569    -0.07300
C2136       C  0.27225848  0.33214399  0.02791387    -0.08100
C2137       C  0.28269913  0.34227173  0.03534707    -0.02600
C2138       C  0.29862625  0.34135495  0.03170449     0.04200
N2139       N  0.30973840  0.35142058  0.03888174     0.66700
H2140       H  0.31621763  0.33029002  0.01825383     0.15600
H2141       H  0.25986865  0.33305055  0.03032054     0.15300
N2142       N  0.26617290  0.31281877  0.00801563     0.74400
O2143       O  0.31697744  0.34673120  0.05073546    -0.39000
O2144       O  0.31505677  0.36280318  0.03130296    -0.39000
O2145       O  0.26024492  0.30089685  0.01417654    -0.39700
O2146       O  0.25970725  0.31879176  0.99628639    -0.39700
C2147       C  0.19604319  0.42087066  0.11808289    -0.12000
C2148       C  0.21152207  0.41606674  0.11923280     0.05000
C2149       C  0.22047658  0.42115411  0.13198475    -0.07300
C2150       C  0.21412638  0.43197952  0.14260444    -0.08100
C2151       C  0.19893591  0.43791592  0.14057876    -0.02600
C2152       C  0.18972756  0.43166697  0.12838986     0.04200
N2153       N  0.17411015  0.43669221  0.12565577     0.66700
H2154       H  0.18897491  0.41691566  0.10841741     0.15600
H2155       H  0.22138539  0.43638484  0.15190000     0.15300
N2156       N  0.23634827  0.41646933  0.13354923     0.74400
O2157       O  0.17164726  0.44736044  0.11588023    -0.39000
O2158       O  0.16300741  0.42798996  0.12967059    -0.39000
O2159       O  0.24675010  0.42316991  0.12568981    -0.39700
O2160       O  0.23967683  0.40436801  0.14116690    -0.39700
C2161       C  0.28831456  0.61203975  0.94705144    -0.12000
C2162       C  0.29706940  0.60208168  0.93748890     0.05000
C2163       C  0.31338611  0.60310419  0.93774939    -0.07300
C2164       C  0.32070052  0.61344722  0.94785378    -0.08100
C2165       C  0.31213177  0.62261140  0.95826179    -0.02600
C2166       C  0.29571181  0.62220689  0.95756703     0.04200
N2167       N  0.28647835  0.63056123  0.96856011     0.66700
H2168       H  0.27570355  0.61103374  0.94723754     0.15600
H2169       H  0.33335417  0.61367047  0.94815632     0.15300
N2170       N  0.32274821  0.59301654  0.92844123     0.74400
O2171       O  0.27897798  0.64241991  0.96420701    -0.39000
O2172       O  0.28297485  0.62412845  0.98124524    -0.39000
O2173       O  0.32805414  0.59792993  0.91571058    -0.39700
O2174       O  0.32848576  0.58088925  0.93442689    -0.39700
C2175       C  0.19688809  0.53212079  0.86301742    -0.12000
C2176       C  0.21281007  0.53482380  0.86082233     0.05000
C2177       C  0.21970861  0.53015188  0.84673745    -0.07300
C2178       C  0.21088022  0.52198025  0.83568632    -0.08100
C2179       C  0.19515059  0.51824577  0.83834085    -0.02600
C2180       C  0.18801335  0.52406001  0.85199579     0.04200
N2181       N  0.17190333  0.52155393  0.85518459     0.66700
H2182       H  0.19134127  0.53585191  0.87373952     0.15600
H2183       H  0.21670202  0.51779331  0.82529576     0.15300
N2184       N  0.23596191  0.53223990  0.84408862     0.74400
O2185       O  0.16797950  0.51032733  0.86377333    -0.39000
O2186       O  0.16237064  0.53249546  0.85286491    -0.39000
O2187       O  0.24524508  0.52130880  0.84729079    -0.39700
O2188       O  0.24047244  0.54324301  0.83550797    -0.39700
C2189       C  0.27487957  0.33820072  0.93142017    -0.12000
C2190       C  0.28586688  0.34837114  0.92493571     0.05000
C2191       C  0.30175704  0.34591012  0.92793132    -0.07300
C2192       C  0.30637859  0.33377257  0.93761830    -0.08100
C2193       C  0.29544868  0.32414218  0.94499330    -0.02600
C2194       C  0.27948713  0.32625462  0.94158028     0.04200
N2195       N  0.26776853  0.31746419  0.94937984     0.66700
H2196       H  0.26253308  0.34025502  0.92950192     0.15600
H2197       H  0.31875483  0.33226923  0.93980525     0.15300
N2198       N  0.31336309  0.35596760  0.92160958     0.74400
O2199       O  0.26222211  0.32256469  0.96195056    -0.39000
O2200       O  0.26061701  0.30689211  0.94212979    -0.39000
O2201       O  0.31969481  0.36600133  0.93025730    -0.39700
O2202       O  0.31978540  0.35235266  0.90894878    -0.39700
C2203       C  0.21714001  0.43601794  0.84730010    -0.12000
C2204       C  0.20761100  0.43030021  0.85923749     0.05000
C2205       C  0.19189075  0.43477805  0.85967505    -0.07300
C2206       C  0.18612321  0.44520920  0.84872102    -0.08100
C2207       C  0.19568639  0.45167573  0.83714815    -0.02600
C2208       C  0.21137318  0.44671344  0.83632256     0.04200
N2209       N  0.22176406  0.45282539  0.82493972     0.66700
H2210       H  0.22936381  0.43274563  0.84693124     0.15600
H2211       H  0.17390833  0.44840332  0.84952607     0.15300
N2212       N  0.18151273  0.42868774  0.87110726     0.74400
O2213       O  0.23019232  0.46435892  0.82834604    -0.39000
O2214       O  0.22513832  0.44465412  0.81323677    -0.39000
O2215       O  0.17725297  0.43727579  0.88221451    -0.39700
O2216       O  0.17382367  0.41655887  0.86804153    -0.39700
C2217       C  0.62762913  0.30194434  0.00955341    -0.12000
C2218       C  0.64189021  0.29551804  0.00480513     0.05000
C2219       C  0.64596844  0.28050693  0.01028932    -0.07300
C2220       C  0.63554924  0.27218334  0.01973121    -0.08100
C2221       C  0.62103324  0.27847269  0.02378829    -0.02600
C2222       C  0.61729964  0.29369368  0.01887856     0.04200
N2223       N  0.60310616  0.30110573  0.02339870     0.66700
H2224       H  0.62418192  0.31354071  0.00580279     0.15600
H2225       H  0.63859296  0.26043573  0.02337930     0.15300
N2226       N  0.66046639  0.27344128  0.00630403     0.74400
O2227       O  0.60272343  0.30867497  0.03595033    -0.39000
O2228       O  0.59269827  0.30349304  0.01333164    -0.39000
O2229       O  0.67177714  0.27454433  0.01558019    -0.39700
O2230       O  0.66087801  0.26334179  0.99566279    -0.39700
C2231       C  0.54050168  0.19363922  0.12031265    -0.12000
C2232       C  0.53737416  0.17757785  0.12016298     0.05000
C2233       C  0.54578725  0.16796850  0.10979672    -0.07300
C2234       C  0.55561741  0.17464829  0.09876674    -0.08100
C2235       C  0.55766792  0.19078895  0.09800228    -0.02600
C2236       C  0.55058353  0.20031072  0.10933931     0.04200
N2237       N  0.55228256  0.21684900  0.10894955     0.66700
H2238       H  0.53433103  0.20121417  0.12833346     0.15600
H2239       H  0.56134215  0.16714661  0.09034250     0.15300
N2240       N  0.54458844  0.15138114  0.11035828     0.74400
O2241       O  0.54297125  0.22488979  0.10094102    -0.39000
O2242       O  0.56076459  0.22347808  0.11891612    -0.39000
O2243       O  0.53688567  0.14434713  0.10004142    -0.39700
O2244       O  0.55416849  0.14382467  0.11851786    -0.39700
C2245       C  0.33625429  0.24908861  0.00325840    -0.12000
C2246       C  0.33409958  0.26423810  0.00890321     0.05000
C2247       C  0.34187273  0.26882117  0.02258687    -0.07300
C2248       C  0.35220576  0.25851223  0.02989351    -0.08100
C2249       C  0.35532011  0.24377417  0.02353837    -0.02600
C2250       C  0.34687959  0.23892151  0.01030542     0.04200
N2251       N  0.34919468  0.22384557  0.00366112     0.66700
H2252       H  0.33038196  0.24543244  0.99267008     0.15600
H2253       H  0.35857613  0.26246952  0.04006906     0.15300
N2254       N  0.33964510  0.28400865  0.02900487     0.74400
O2255       O  0.34051910  0.21277837  0.00784520    -0.39000
O2256       O  0.35680963  0.22259801  0.99120679    -0.39000
O2257       O  0.33015984  0.28580924  0.04002792    -0.39700
O2258       O  0.34941583  0.29458033  0.02615936    -0.39700
C2259       C  0.45683552  0.21242319  0.12018588    -0.12000
C2260       C  0.44684201  0.20548601  0.10935094     0.05000
C2261       C  0.44684496  0.18916936  0.10783364    -0.07300
C2262       C  0.45760663  0.18018473  0.11619964    -0.08100
C2263       C  0.46829256  0.18713264  0.12649971    -0.02600
C2264       C  0.46724723  0.20342733  0.12900892     0.04200
N2265       N  0.47706730  0.21119680  0.13992327     0.66700
H2266       H  0.45693189  0.22498406  0.12142503     0.15600
H2267       H  0.45782924  0.16771782  0.11431308     0.15300
N2268       N  0.43675317  0.18166682  0.09697815     0.74400
O2269       O  0.48873936  0.21864376  0.13509106    -0.39000
O2270       O  0.47200467  0.21384743  0.15341442    -0.39000
O2271       O  0.44042961  0.18102846  0.08281669    -0.39700
O2272       O  0.42338154  0.17738109  0.10120447    -0.39700
C2273       C  0.62899371  0.28485496  0.91989987    -0.12000
C2274       C  0.61484909  0.29278758  0.91789674     0.05000
C2275       C  0.61270494  0.30715450  0.92554879    -0.07300
C2276       C  0.62407259  0.31272474  0.93573428    -0.08100
C2277       C  0.63785366  0.30436585  0.93863705    -0.02600
C2278       C  0.64046083  0.29045364  0.93014467     0.04200
N2279       N  0.65438152  0.28157376  0.93206914     0.66700
H2280       H  0.63086594  0.27375059  0.91408898     0.15600
H2281       H  0.62185771  0.32371368  0.94162943     0.15300
N2282       N  0.59905986  0.31634503  0.92302023     0.74400
O2283       O  0.65475177  0.27083377  0.94205355    -0.39000
O2284       O  0.66461623  0.28192730  0.92158880    -0.39000
O2285       O  0.58954505  0.31834373  0.93398895    -0.39700
O2286       O  0.59842427  0.32517489  0.91133471    -0.39700
C2287       C  0.55163393  0.18752665  0.84428739    -0.12000
C2288       C  0.55148482  0.20380423  0.84318615     0.05000
C2289       C  0.54232695  0.21089081  0.83157043    -0.07300
C2290       C  0.53273686  0.20164421  0.82207312    -0.08100
C2291       C  0.53187361  0.18540804  0.82414521    -0.02600
C2292       C  0.54197924  0.17832218  0.83502200     0.04200
N2293       N  0.54227006  0.16182691  0.83723314     0.66700
H2294       H  0.55876576  0.18188575  0.85308099     0.15600
H2295       H  0.52509561  0.20735541  0.81377753     0.15300
N2296       N  0.54130536  0.22745030  0.83038711     0.74400
O2297       O  0.55248753  0.15382868  0.83037113    -0.39000
O2298       O  0.53514439  0.15601113  0.84863828    -0.39000
O2299       O  0.54787012  0.23429590  0.81922359    -0.39700
O2300       O  0.53128443  0.23466019  0.83832217    -0.39700
C2301       C  0.35544181  0.26123120  0.92657049    -0.12000
C2302       C  0.35332745  0.24519688  0.92874729     0.05000
C2303       C  0.34164276  0.23997973  0.93889713    -0.07300
C2304       C  0.33244417  0.25078713  0.94685833    -0.08100
C2305       C  0.33515354  0.26684666  0.94547308    -0.02600
C2306       C  0.34670861  0.27208293  0.93504137     0.04200
N2307       N  0.35012963  0.28827636  0.93330735     0.66700
H2308       H  0.36467557  0.26536379  0.91900218     0.15600
H2309       H  0.32378132  0.24651390  0.95499535     0.15300
N2310       N  0.33952738  0.22375694  0.94185488     0.74400
O2311       O  0.36094604  0.29420522  0.94126178    -0.39000
O2312       O  0.34525957  0.29540213  0.92145391    -0.39000
O2313       O  0.34522423  0.21786106  0.95401200    -0.39700
O2314       O  0.32931772  0.21633851  0.93437098    -0.39700
C2315       C  0.45405104  0.21108791  0.83470637    -0.12000
C2316       C  0.44470988  0.20378517  0.84581116     0.05000
C2317       C  0.44517307  0.18745390  0.84722180    -0.07300
C2318       C  0.45512900  0.17872359  0.83767549    -0.08100
C2319       C  0.46474905  0.18603671  0.82665251    -0.02600
C2320       C  0.46397586  0.20243025  0.82512823     0.04200
N2321       N  0.47404488  0.21063858  0.81481117     0.66700
H2322       H  0.45401784  0.22368073  0.83381034     0.15600
H2323       H  0.45561937  0.16620676  0.83916917     0.15300
N2324       N  0.43657517  0.17973563  0.85913863     0.74400
O2325       O  0.46871267  0.21570291  0.80213171    -0.39000
O2326       O  0.48675478  0.21593740  0.81989069    -0.39000
O2327       O  0.42334365  0.17413142  0.85617524    -0.39700
O2328       O  0.44148380  0.17991496  0.87294862    -0.39700
C2329       C  0.64712542  0.01927083  0.71776346    -0.12000
C2330       C  0.63760164  0.03106329  0.71170554     0.05000
C2331       C  0.63758041  0.03378306  0.69558184    -0.07300
C2332       C  0.64589515  0.02382744  0.68576941    -0.08100
C2333       C  0.65452470  0.01127348  0.69170937    -0.02600
C2334       C  0.65577473  0.00953669  0.70797393     0.04200
N2335       N  0.66482743  0.99733658  0.71473881     0.66700
H2336       H  0.64724842  0.01710514  0.73019457     0.15600
H2337       H  0.64508913  0.02559177  0.67330263     0.15300
N2338       N  0.62807892  0.04564698  0.68884388     0.74400
O2339       O  0.67821133  0.00041433  0.71991375    -0.39000
O2340       O  0.65819912  0.98492933  0.71893115    -0.39000
O2341       O  0.63436305  0.05796189  0.68392047    -0.39700
O2342       O  0.61436423  0.04242795  0.68473404    -0.39700
C2343       C  0.54679703  0.12844278  0.75636483    -0.12000
C2344       C  0.54922579  0.11332454  0.76190133     0.05000
C2345       C  0.54308432  0.10901877  0.77638797    -0.07300
C2346       C  0.53387333  0.11950944  0.78468116    -0.08100
C2347       C  0.53042479  0.13437975  0.77876135    -0.02600
C2348       C  0.53754285  0.13903914  0.76466141     0.04200
N2349       N  0.53533777  0.15429804  0.75842761     0.66700
H2350       H  0.55158058  0.13184306  0.74519636     0.15600
H2351       H  0.52885975  0.11563971  0.79558352     0.15300
N2352       N  0.54565872  0.09379824  0.78258436     0.74400
O2353       O  0.54452556  0.16505483  0.76236035    -0.39000
O2354       O  0.52687314  0.15607206  0.74658477    -0.39000
O2355       O  0.55606402  0.09184461  0.79273718    -0.39700
O2356       O  0.53555040  0.08335277  0.78053438    -0.39700
C2357       C  0.36028166  0.02995238  0.69339240    -0.12000
C2358       C  0.37299784  0.03454997  0.68430490     0.05000
C2359       C  0.37349638  0.02998506  0.66859200    -0.07300
C2360       C  0.36216810  0.01996249  0.66264177    -0.08100
C2361       C  0.35012338  0.01418252  0.67201485    -0.02600
C2362       C  0.34888914  0.01981394  0.68744041     0.04200
N2363       N  0.33687874  0.01452470  0.69758279     0.66700
H2364       H  0.35977295  0.03332162  0.70556022     0.15600
H2365       H  0.36312653  0.01633603  0.65057859     0.15300
N2366       N  0.38562337  0.03524923  0.65855165     0.74400
O2367       O  0.33909364  0.00247991  0.70567517    -0.39000
O2368       O  0.32575415  0.02352804  0.70088656    -0.39000
O2369       O  0.39606904  0.02583432  0.65430817    -0.39700
O2370       O  0.38385990  0.04785076  0.65122763    -0.39700
C2371       C  0.44583441  0.11079925  0.78061726    -0.12000
C2372       C  0.44625549  0.10983692  0.76441126     0.05000
C2373       C  0.45484589  0.12095029  0.75602720    -0.07300
C2374       C  0.46347638  0.13237618  0.76397014    -0.08100
C2375       C  0.46374470  0.13289393  0.78031751    -0.02600
C2376       C  0.45428567  0.12225608  0.78859507     0.04200
N2377       N  0.45320450  0.12279967  0.80513446     0.66700
H2378       H  0.43930211  0.10224784  0.78717302     0.15600
H2379       H  0.47066729  0.14029543  0.75733607     0.15300
N2380       N  0.45591809  0.11992473  0.73950988     0.74400
O2381       O  0.44265509  0.13090567  0.81134115    -0.39000
O2382       O  0.46018883  0.11266651  0.81314184    -0.39000
O2383       O  0.44509668  0.12532785  0.73120061    -0.39700
O2384       O  0.46617802  0.11136263  0.73342517    -0.39700
C2385       C  0.62694737  0.92343015  0.67570342    -0.12000
C2386       C  0.62946783  0.91796902  0.69081681     0.05000
C2387       C  0.64227313  0.92386929  0.69926825    -0.07300
C2388       C  0.65124279  0.93603687  0.69297838    -0.08100
C2389       C  0.64760162  0.94254464  0.67842289    -0.02600
C2390       C  0.63557829  0.93566248  0.66957084     0.04200
N2391       N  0.63165898  0.94108695  0.65439038     0.66700
H2392       H  0.61752820  0.91866785  0.66873787     0.15600
H2393       H  0.66069575  0.94085995  0.69984353     0.15300
N2394       N  0.64586958  0.91830320  0.71446752     0.74400
O2395       O  0.63722959  0.93417146  0.64272936    -0.39000
O2396       O  0.61993668  0.94977974  0.65267895    -0.39000
O2397       O  0.65683282  0.90867394  0.71619871    -0.39700
O2398       O  0.64063226  0.92544322  0.72615515    -0.39700
C2399       C  0.54501365  0.84087535  0.76548185    -0.12000
C2400       C  0.55395102  0.85089171  0.77469965     0.05000
C2401       C  0.55202151  0.85073660  0.79087608    -0.07300
C2402       C  0.54049950  0.84141275  0.79755605    -0.08100
C2403       C  0.53100765  0.83173833  0.78835793    -0.02600
C2404       C  0.53374136  0.83113426  0.77215805     0.04200
N2405       N  0.52480332  0.82131508  0.76217564     0.66700
H2406       H  0.54640818  0.84100745  0.75298893     0.15600
H2407       H  0.53904532  0.84167336  0.81003741     0.15300
N2408       N  0.56201116  0.85975229  0.80064007     0.74400
O2409       O  0.51591347  0.82750953  0.75229358    -0.39000
O2410       O  0.52924188  0.80746963  0.76003721    -0.39000
O2411       O  0.55747417  0.87272185  0.80583959    -0.39700
O2412       O  0.57599972  0.85566913  0.80245570    -0.39700
C2413       C  0.35968942  0.93903449  0.67043418    -0.12000
C2414       C  0.34811651  0.94716805  0.67867203     0.05000
C2415       C  0.34721276  0.94491904  0.69493619    -0.07300
C2416       C  0.35814681  0.93530187  0.70252074    -0.08100
C2417       C  0.37019455  0.92800481  0.69424595    -0.02600
C2418       C  0.37063366  0.92966846  0.67797524     0.04200
N2419       N  0.38214972  0.92186220  0.66886693     0.66700
H2420       H  0.36055743  0.94017697  0.65789282     0.15600
H2421       H  0.35774367  0.93426994  0.71509901     0.15300
N2422       N  0.33595805  0.95301597  0.70406406     0.74400
O2423       O  0.37911250  0.90861937  0.66328282    -0.39000
O2424       O  0.39343978  0.92951003  0.66346678    -0.39000
O2425       O  0.32393606  0.94593990  0.70858094    -0.39700
O2426       O  0.33953309  0.96586340  0.71022284    -0.39700
C2427       C  0.45243844  0.84231760  0.76481806    -0.12000
C2428       C  0.44078278  0.84963234  0.77354022     0.05000
C2429       C  0.43864109  0.84521341  0.78909651    -0.07300
C2430       C  0.44902763  0.83467316  0.79607461    -0.08100
C2431       C  0.46146974  0.82816675  0.78763352    -0.02600
C2432       C  0.46269777  0.83160583  0.77167233     0.04200
N2433       N  0.47579163  0.82649729  0.76291345     0.66700
H2434       H  0.45448363  0.84599274  0.75295870     0.15600
H2435       H  0.44782467  0.83214596  0.80833415     0.15300
N2436       N  0.42670848  0.85230513  0.79821938     0.74400
O2437       O  0.47438666  0.81496623  0.75393779    -0.39000
O2438       O  0.48694556  0.83581244  0.76098216    -0.39000
O2439       O  0.41270583  0.84846298  0.79609735    -0.39700
O2440       O  0.42984379  0.86399964  0.80652455    -0.39700
C2441       C  0.66812551  0.71571486  0.01469484    -0.12000
C2442       C  0.66917564  0.69971944  0.01780425     0.05000
C2443       C  0.66112166  0.69367464  0.03078848    -0.07300
C2444       C  0.65181189  0.70356277  0.03991490    -0.08100
C2445       C  0.64999703  0.71935267  0.03610573    -0.02600
C2446       C  0.65850170  0.72545365  0.02350734     0.04200
N2447       N  0.65717668  0.74147491  0.01923969     0.66700
H2448       H  0.67421676  0.72061384  0.00477619     0.15600
H2449       H  0.64523839  0.69864687  0.04951088     0.15300
N2450       N  0.66213259  0.67755964  0.03479853     0.74400
O2451       O  0.66692713  0.75111848  0.02447077    -0.39000
O2452       O  0.64894418  0.74517043  0.00767831    -0.39000
O2453       O  0.67155736  0.67335849  0.04522656    -0.39700
O2454       O  0.65127929  0.66848443  0.03088210    -0.39700
C2455       C  0.54913532  0.75411115  0.13320636    -0.12000
C2456       C  0.56041728  0.76123205  0.12381413     0.05000
C2457       C  0.56204900  0.77756951  0.12443825    -0.07300
C2458       C  0.55185956  0.78644840  0.13358386    -0.08100
C2459       C  0.54016116  0.77937997  0.14249228    -0.02600
C2460       C  0.53916363  0.76295938  0.14262516     0.04200
N2461       N  0.52732400  0.75513687  0.15124015     0.66700
H2462       H  0.54765709  0.74153761  0.13278467     0.15600
H2463       H  0.55281757  0.79907499  0.13335331     0.15300
N2464       N  0.57311430  0.78544740  0.11492470     0.74400
O2465       O  0.51463035  0.75179353  0.14467641    -0.39000
O2466       O  0.53081882  0.74857357  0.16387222    -0.39000
O2467       O  0.56886559  0.79091055  0.10200398    -0.39700
O2468       O  0.58575840  0.78996707  0.12084012    -0.39700
C2469       C  0.38787830  0.65752583  0.04584452    -0.12000
C2470       C  0.38718523  0.67325500  0.04987464     0.05000
C2471       C  0.37522467  0.68262214  0.04368402    -0.07300
C2472       C  0.36484481  0.67628193  0.03275553    -0.08100
C2473       C  0.36625696  0.66070434  0.02780504    -0.02600
C2474       C  0.37768947  0.65117177  0.03497879     0.04200
N2475       N  0.37978022  0.63518210  0.03085114     0.66700
H2476       H  0.39708555  0.65021896  0.05056276     0.15600
H2477       H  0.35609296  0.68382349  0.02760411     0.15300
N2478       N  0.37430357  0.69883307  0.04731561     0.74400
O2479       O  0.39002125  0.63159077  0.02098904    -0.39000
O2480       O  0.37414258  0.62471492  0.03943440    -0.39000
O2481       O  0.38114211  0.70858215  0.03876264    -0.39700
O2482       O  0.36435344  0.70352669  0.05700823    -0.39700
C2483       C  0.47358711  0.76275937  0.14402162    -0.12000
C2484       C  0.47453695  0.77855862  0.13980846     0.05000
C2485       C  0.46640307  0.78368232  0.12645974    -0.07300
C2486       C  0.45824853  0.77300032  0.11741783    -0.08100
C2487       C  0.45822746  0.75709761  0.12098988    -0.02600
C2488       C  0.46571224  0.75196950  0.13462149     0.04200
N2489       N  0.46689004  0.73577109  0.13819167     0.66700
H2490       H  0.47992803  0.75851763  0.15408450     0.15600
H2491       H  0.45240095  0.77714774  0.10701184     0.15300
N2492       N  0.46677246  0.79955067  0.12144952     0.74400
O2493       O  0.47800302  0.72795766  0.13261788    -0.39000
O2494       O  0.45928604  0.73033772  0.14946761    -0.39000
O2495       O  0.47566902  0.80332259  0.11043163    -0.39700
O2496       O  0.45567902  0.80847926  0.12503720    -0.39700
C2497       C  0.64351957  0.69311328  0.93229309    -0.12000
C2498       C  0.64243749  0.70938488  0.93186815     0.05000
C2499       C  0.65328340  0.71832503  0.94032195    -0.07300
C2500       C  0.66435468  0.71083060  0.94972928    -0.08100
C2501       C  0.66464395  0.69451517  0.95104987    -0.02600
C2502       C  0.65443065  0.68562710  0.94171698     0.04200
N2503       N  0.65473112  0.66897898  0.94186900     0.66700
H2504       H  0.63527273  0.68608958  0.92576333     0.15600
H2505       H  0.67209554  0.71786966  0.95682039     0.15300
N2506       N  0.65216433  0.73491187  0.94080974     0.74400
O2507       O  0.64476282  0.66169364  0.94977349    -0.39000
O2508       O  0.66216112  0.66183271  0.93143411    -0.39000
O2509       O  0.64523692  0.74134769  0.95201943    -0.39700
O2510       O  0.66086808  0.74297014  0.93220399    -0.39700
C2511       C  0.55171142  0.76977642  0.84892202    -0.12000
C2512       C  0.55679183  0.78028824  0.86035288     0.05000
C2513       C  0.55132560  0.79571358  0.85993199    -0.07300
C2514       C  0.54028373  0.80012188  0.84891116    -0.08100
C2515       C  0.53408684  0.78941769  0.83817451    -0.02600
C2516       C  0.54043040  0.77417100  0.83784622     0.04200
N2517       N  0.53506006  0.76278398  0.82701423     0.66700
H2518       H  0.55583325  0.75779317  0.84915497     0.15600
H2519       H  0.53615570  0.81209536  0.84918351     0.15300
N2520       N  0.55660357  0.80702366  0.87091464     0.74400
O2521       O  0.54264525  0.76056862  0.81467656    -0.39000
O2522       O  0.52558455  0.75251645  0.83149110    -0.39000
O2523       O  0.56705003  0.81653347  0.86696088    -0.39700
O2524       O  0.54840793  0.80993582  0.88270773    -0.39700
C2525       C  0.39153185  0.66058312  0.94339742    -0.12000
C2526       C  0.38843707  0.67559035  0.93775485     0.05000
C2527       C  0.37437191  0.68290216  0.94197860    -0.07300
C2528       C  0.36424864  0.67550826  0.95238429    -0.08100
C2529       C  0.36773511  0.66079101  0.95873561    -0.02600
C2530       C  0.38139229  0.65310959  0.95365654     0.04200
N2531       N  0.38544888  0.63789952  0.95902876     0.66700
H2532       H  0.40221300  0.65465533  0.94006304     0.15600
H2533       H  0.35374959  0.68164684  0.95587117     0.15300
N2534       N  0.37067871  0.69825577  0.93676471     0.74400
O2535       O  0.38129181  0.62617251  0.95122821    -0.39000
O2536       O  0.39602368  0.63641887  0.96908899    -0.39000
O2537       O  0.36123645  0.69999340  0.92567756    -0.39700
O2538       O  0.37394769  0.70976822  0.94527243    -0.39700
C2539       C  0.45107728  0.77923426  0.86271369    -0.12000
C2540       C  0.45012674  0.76310141  0.86069974     0.05000
C2541       C  0.45598562  0.75643374  0.84693244    -0.07300
C2542       C  0.46389953  0.76584703  0.83616568    -0.08100
C2543       C  0.46599062  0.78191079  0.83882801    -0.02600
C2544       C  0.45871983  0.78866321  0.85197105     0.04200
N2545       N  0.45934283  0.80502311  0.85495070     0.66700
H2546       H  0.44628760  0.78457181  0.87312787     0.15600
H2547       H  0.46914973  0.76035303  0.82607342     0.15300
N2548       N  0.45516259  0.74002167  0.84432741     0.74400
O2549       O  0.44836413  0.81359804  0.85029640    -0.39000
O2550       O  0.46861348  0.81013327  0.86510941    -0.39000
O2551       O  0.44533193  0.73470451  0.83482393    -0.39700
O2552       O  0.46605893  0.73136391  0.84902186    -0.39700
C2553       C  0.64887127  0.02832514  0.27711328    -0.12000
C2554       C  0.64465607  0.02305092  0.29201880     0.05000
C2555       C  0.63070008  0.02874046  0.29857437    -0.07300
C2556       C  0.62117591  0.03883932  0.29005785    -0.08100
C2557       C  0.62499698  0.04348967  0.27489205    -0.02600
C2558       C  0.63924481  0.03838141  0.26854658     0.04200
N2559       N  0.64371067  0.04241593  0.25310586     0.66700
H2560       H  0.65956867  0.02424197  0.27176253     0.15600
H2561       H  0.61040513  0.04282846  0.29532954     0.15300
N2562       N  0.62581657  0.02427115  0.31377425     0.74400
O2563       O  0.65340452  0.05323942  0.25103712    -0.39000
O2564       O  0.64087545  0.03307514  0.24214975    -0.39000
O2565       O  0.62867517  0.03312052  0.32512100    -0.39700
O2566       O  0.61592173  0.01353570  0.31528822    -0.39700
C2567       C  0.55197760  0.10725539  0.16748002    -0.12000
C2568       C  0.55731652  0.11093850  0.18244580     0.05000
C2569       C  0.55239685  0.12505766  0.18925738    -0.07300
C2570       C  0.54176122  0.13465995  0.18138269    -0.08100
C2571       C  0.53563589  0.13046602  0.16678915    -0.02600
C2572       C  0.54122778  0.11668438  0.15969174     0.04200
N2573       N  0.53583513  0.11173398  0.14479326     0.66700
H2574       H  0.55577601  0.09652913  0.16191015     0.15600
H2575       H  0.53778807  0.14522536  0.18711635     0.15300
N2576       N  0.55701665  0.12924366  0.20462607     0.74400
O2577       O  0.54402544  0.11446154  0.13296569    -0.39000
O2578       O  0.52523065  0.10161573  0.14398475    -0.39000
O2579       O  0.56723749  0.13960731  0.20652880    -0.39700
O2580       O  0.54863711  0.12524619  0.21595629    -0.39700
C2581       C  0.37093884  0.03151464  0.30153430    -0.12000
C2582       C  0.36095292  0.02366520  0.29125081     0.05000
C2583       C  0.36033400  0.02866749  0.27561068    -0.07300
C2584       C  0.37018821  0.04064722  0.27048724    -0.08100
C2585       C  0.38081333  0.04775505  0.28061919    -0.02600
C2586       C  0.38076103  0.04342571  0.29640412     0.04200
N2587       N  0.39060174  0.05106442  0.30740316     0.66700
H2588       H  0.37124550  0.02832197  0.31374685     0.15600
H2589       H  0.37026742  0.04365960  0.25822704     0.15300
N2590       N  0.35066464  0.02098969  0.26450784     0.74400
O2591       O  0.38564345  0.06305771  0.31428819    -0.39000
O2592       O  0.40218650  0.04389785  0.31288675    -0.39000
O2593       O  0.33874089  0.02784474  0.25936575    -0.39700
O2594       O  0.35572877  0.00907914  0.25756016    -0.39700
C2595       C  0.44780807  0.11726898  0.17563415    -0.12000
C2596       C  0.44903739  0.11769614  0.19183063     0.05000
C2597       C  0.45906263  0.12869025  0.19874199    -0.07300
C2598       C  0.46837904  0.13829205  0.18935165    -0.08100
C2599       C  0.46793254  0.13712362  0.17306260    -0.02600
C2600       C  0.45694159  0.12690695  0.16624292     0.04200
N2601       N  0.45498989  0.12598455  0.14978856     0.66700
H2602       H  0.44003474  0.10891541  0.17016509     0.15600
H2603       H  0.47666018  0.14607500  0.19489564     0.15300
N2604       N  0.46096303  0.12926081  0.21519924     0.74400
O2605       O  0.46212047  0.11558146  0.14226488    -0.39000
O2606       O  0.44367972  0.13294148  0.14351934    -0.39000
O2607       O  0.47210819  0.12201654  0.22143791    -0.39700
O2608       O  0.45362535  0.13934028  0.22294939    -0.39700
C2609       C  0.63707814  0.93233803  0.28733712    -0.12000
C2610       C  0.63324227  0.93572833  0.27193844     0.05000
C2611       C  0.63985941  0.94888502  0.26475445    -0.07300
C2612       C  0.64973237  0.95871400  0.27325076    -0.08100
C2613       C  0.65269192  0.95594811  0.28903830    -0.02600
C2614       C  0.64662984  0.94232698  0.29595030     0.04200
N2615       N  0.65003749  0.93841057  0.31168525     0.66700
H2616       H  0.63189497  0.92230019  0.29300954     0.15600
H2617       H  0.65417660  0.96919912  0.26776712     0.15300
N2618       N  0.63548121  0.95321722  0.24935386     0.74400
O2619       O  0.64100767  0.94300086  0.32228442    -0.39000
O2620       O  0.65903824  0.92710988  0.31432966    -0.39000
O2621       O  0.62462570  0.96292120  0.24737961    -0.39700
O2622       O  0.64432728  0.94989124  0.23815656    -0.39700
C2623       C  0.55271679  0.84864298  0.20379880    -0.12000
C2624       C  0.55855075  0.86011707  0.19376032     0.05000
C2625       C  0.55451242  0.85950247  0.17792495    -0.07300
C2626       C  0.54477689  0.84771178  0.17247508    -0.08100
C2627       C  0.53831148  0.83652458  0.18250116    -0.02600
C2628       C  0.54247432  0.83704460  0.19840149     0.04200
N2629       N  0.53565023  0.82667284  0.20940145     0.66700
H2630       H  0.55542571  0.84920127  0.21612796     0.15600
H2631       H  0.54197295  0.84763645  0.16016152     0.15300
N2632       N  0.56011101  0.87084715  0.16715684     0.74400
O2633       O  0.54334144  0.81507986  0.21411551    -0.39000
O2634       O  0.52382643  0.83102540  0.21691846    -0.39000
O2635       O  0.57181926  0.86765106  0.15893140    -0.39700
O2636       O  0.55126889  0.88185547  0.16308102    -0.39700
C2637       C  0.36793967  0.93871851  0.26501684    -0.12000
C2638       C  0.37747786  0.92983898  0.27487522     0.05000
C2639       C  0.37629319  0.93201547  0.29101206    -0.07300
C2640       C  0.36642014  0.94346982  0.29696669    -0.08100
C2641       C  0.35754685  0.95314683  0.28719205    -0.02600
C2642       C  0.35801748  0.95033960  0.27100132     0.04200
N2643       N  0.34944525  0.95982862  0.26040904     0.66700
H2644       H  0.36891390  0.93730940  0.25250232     0.15600
H2645       H  0.36598245  0.94498818  0.30949646     0.15300
N2646       N  0.38521969  0.92275398  0.30154274     0.74400
O2647       O  0.35605326  0.97131017  0.25410325    -0.39000
O2648       O  0.33695678  0.95468236  0.25467654    -0.39000
O2649       O  0.39698490  0.92858162  0.30809884    -0.39700
O2650       O  0.37946675  0.91031794  0.30679937    -0.39700
C2651       C  0.45324982  0.84402248  0.20062982    -0.12000
C2652       C  0.44894753  0.85677863  0.19138148     0.05000
C2653       C  0.45470339  0.85766562  0.17609031    -0.07300
C2654       C  0.46534977  0.84661835  0.17075491    -0.08100
C2655       C  0.47059969  0.83440218  0.18027231    -0.02600
C2656       C  0.46396555  0.83285614  0.19525416     0.04200
N2657       N  0.46826945  0.82039143  0.20535937     0.66700
H2658       H  0.44890830  0.84313679  0.21245911     0.15600
H2659       H  0.46975851  0.84789364  0.15899294     0.15300
N2660       N  0.44982664  0.86973264  0.16574384     0.74400
O2661       O  0.47885140  0.82251969  0.21529304    -0.39000
O2662       O  0.45930963  0.80884557  0.20674488    -0.39000
O2663       O  0.45933359  0.88026438  0.16199318    -0.39700
O2664       O  0.43786057  0.86763373  0.15751917    -0.39700
C2665       C  0.27932842  0.02873067  0.61656799    -0.12000
C2666       C  0.28915848  0.03601190  0.60577658     0.05000
C2667       C  0.30515161  0.03238432  0.60594520    -0.07300
C2668       C  0.31085170  0.02124316  0.61631721    -0.08100
C2669       C  0.30096837  0.01335135  0.62665671    -0.02600
C2670       C  0.28504217  0.01741267  0.62690302     0.04200
N2671       N  0.27429808  0.00932637  0.63659841     0.66700
H2672       H  0.26690868  0.03114996  0.61636854     0.15600
H2673       H  0.32322714  0.01860008  0.61610146     0.15300
N2674       N  0.31580461  0.03993277  0.59567503     0.74400
O2675       O  0.27016356  0.01540209  0.64927790    -0.39000
O2676       O  0.26631482  0.99839017  0.63091303    -0.39000
O2677       O  0.32339624  0.05153464  0.60051213    -0.39700
O2678       O  0.32042148  0.03286105  0.58368496    -0.39700
C2679       C  0.18501932  0.09995853  0.53043760    -0.12000
C2680       C  0.20085203  0.10161379  0.53390717     0.05000
C2681       C  0.20907863  0.11428413  0.52754802    -0.07300
C2682       C  0.20145612  0.12477802  0.51764861    -0.08100
C2683       C  0.18568788  0.12286374  0.51370395    -0.02600
C2684       C  0.17737394  0.11038624  0.52053581     0.04200
N2685       N  0.16119423  0.10801354  0.51757615     0.66700
H2686       H  0.17853318  0.09023795  0.53527157     0.15600
H2687       H  0.20817735  0.13415733  0.51250347     0.15300
N2688       N  0.22544925  0.11588349  0.52985321     0.74400
O2689       O  0.15712057  0.09813683  0.50751144    -0.39000
O2690       O  0.15136329  0.11269182  0.52739974    -0.39000
O2691       O  0.23468179  0.10994638  0.52012360    -0.39700
O2692       O  0.23044717  0.12592492  0.53931618    -0.39700
C2693       C  0.31224342  0.04133776  0.35678510    -0.12000
C2694       C  0.29598299  0.04202374  0.35708939     0.05000
C2695       C  0.28745060  0.03398712  0.34560776    -0.07300
C2696       C  0.29525439  0.02453659  0.33477990    -0.08100
C2697       C  0.31152034  0.02306467  0.33512638    -0.02600
C2698       C  0.32005633  0.03226227  0.34577021     0.04200
N2699       N  0.33667764  0.03267333  0.34539434     0.66700
H2700       H  0.31895715  0.04772617  0.36539344     0.15600
H2701       H  0.28847809  0.01760566  0.32666147     0.15300
N2702       N  0.27084801  0.03425679  0.34560519     0.74400
O2703       O  0.34341604  0.04127975  0.33562585    -0.39000
O2704       O  0.34438475  0.02700646  0.35651400    -0.39000
O2705       O  0.26373086  0.04213831  0.33548365    -0.39700
O2706       O  0.26345362  0.02449380  0.35366687    -0.39700
C2707       C  0.21304396  0.12076713  0.43264260    -0.12000
C2708       C  0.20538415  0.10757257  0.42680681     0.05000
C2709       C  0.18945217  0.10562084  0.43008948    -0.07300
C2710       C  0.18182240  0.11609148  0.43989477    -0.08100
C2711       C  0.18967538  0.12867967  0.44680420    -0.02600
C2712       C  0.20540521  0.13127628  0.44261014     0.04200
N2713       N  0.21404520  0.14403116  0.44884553     0.66700
H2714       H  0.22533804  0.12244531  0.43022460     0.15600
H2715       H  0.16962575  0.11398194  0.44243582     0.15300
N2716       N  0.18080414  0.09298014  0.42360388     0.74400
O2717       O  0.22210353  0.14201238  0.46092859    -0.39000
O2718       O  0.21650169  0.15583206  0.44048115    -0.39000
O2719       O  0.17675980  0.08183169  0.43223702    -0.39700
O2720       O  0.17399771  0.09488004  0.41076154    -0.39700
C2721       C  0.26976910  0.93276905  0.62813600    -0.12000
C2722       C  0.27537302  0.92609169  0.61439903     0.05000
C2723       C  0.29107473  0.92820375  0.61036777    -0.07300
C2724       C  0.30063842  0.93768366  0.61952685    -0.08100
C2725       C  0.29491841  0.94519882  0.63289439    -0.02600
C2726       C  0.27941760  0.94203731  0.63753937     0.04200
N2727       N  0.27310109  0.94846490  0.65147004     0.66700
H2728       H  0.25766036  0.93115009  0.63136379     0.15600
H2729       H  0.31252711  0.93961983  0.61573730     0.15300
N2730       N  0.29719216  0.92162282  0.59641042     0.74400
O2731       O  0.26439103  0.96027899  0.65074128    -0.39000
O2732       O  0.27358786  0.94059593  0.66382726    -0.39000
O2733       O  0.29675659  0.92936465  0.58397384    -0.39700
O2734       O  0.30518450  0.90930680  0.59704417    -0.39700
C2735       C  0.22255537  0.83869730  0.52695457    -0.12000
C2736       C  0.23877451  0.83829191  0.52542262     0.05000
C2737       C  0.24549859  0.82790402  0.51465280    -0.07300
C2738       C  0.23594879  0.81857673  0.50526740    -0.08100
C2739       C  0.21968471  0.81970820  0.50610536    -0.02600
C2740       C  0.21299312  0.82964977  0.51734586     0.04200
N2741       N  0.19651106  0.83075688  0.51910884     0.66700
H2742       H  0.21720878  0.84670537  0.53515661     0.15600
H2743       H  0.24130803  0.81095720  0.49671425     0.15300
N2744       N  0.26199048  0.82687796  0.51294942     0.74400
O2745       O  0.18976340  0.82212375  0.52884240    -0.39000
O2746       O  0.18942964  0.84244968  0.51372726    -0.39000
O2747       O  0.26930151  0.81623218  0.51994076    -0.39700
O2748       O  0.26855716  0.83411596  0.50203405    -0.39700
C2749       C  0.28031971  0.94523390  0.33800177    -0.12000
C2750       C  0.28723429  0.93459138  0.34823501     0.05000
C2751       C  0.30358135  0.93389048  0.34916785    -0.07300
C2752       C  0.31264222  0.94420743  0.34038995    -0.08100
C2753       C  0.30573929  0.95532017  0.33056227    -0.02600
C2754       C  0.28935241  0.95547443  0.32911308     0.04200
N2755       N  0.28160616  0.96671973  0.31963681     0.66700
H2756       H  0.26771592  0.94601979  0.33735252     0.15600
H2757       H  0.32521245  0.94383205  0.34166432     0.15300
N2758       N  0.31111053  0.92380817  0.36001502     0.74400
O2759       O  0.27528362  0.96242980  0.30712263    -0.39000
O2760       O  0.27821016  0.97985147  0.32529219    -0.39000
O2761       O  0.31718866  0.91129015  0.35530077    -0.39700
O2762       O  0.31446559  0.92886462  0.37336011    -0.39700
C2763       C  0.22930750  0.83565548  0.42011442    -0.12000
C2764       C  0.24444711  0.83772056  0.42582646     0.05000
C2765       C  0.24954846  0.82837033  0.43831067    -0.07300
C2766       C  0.23917710  0.81810593  0.44556666    -0.08100
C2767       C  0.22359451  0.81720514  0.44084146    -0.02600
C2768       C  0.21882719  0.82565039  0.42759979     0.04200
N2769       N  0.20329568  0.82448800  0.42183336     0.66700
H2770       H  0.22520046  0.84270663  0.41046344     0.15600
H2771       H  0.24307994  0.81160501  0.45567960     0.15300
N2772       N  0.26506960  0.82958696  0.44411593     0.74400
O2773       O  0.19340450  0.83464629  0.42567525    -0.39000
O2774       O  0.20060699  0.81585181  0.41028354    -0.39000
O2775       O  0.26749650  0.83650133  0.45681772    -0.39700
O2776       O  0.27551481  0.82089530  0.43855365    -0.39700
C2777       C  0.05650099  0.70524191  0.61625493    -0.12000
C2778       C  0.06372977  0.69637213  0.60461220     0.05000
C2779       C  0.06101963  0.68022310  0.60401612    -0.07300
C2780       C  0.05063190  0.67338296  0.61435637    -0.08100
C2781       C  0.04222782  0.68233680  0.62512907    -0.02600
C2782       C  0.04566728  0.69841045  0.62643599     0.04200
N2783       N  0.03727598  0.70821716  0.63688986     0.66700
H2784       H  0.05829381  0.71777561  0.61663030     0.15600
H2785       H  0.04852277  0.66093877  0.61330461     0.15300
N2786       N  0.06803378  0.67070016  0.59233565     0.74400
O2787       O  0.04344793  0.71208769  0.64961056    -0.39000
O2788       O  0.02566872  0.71574521  0.63196377    -0.39000
O2789       O  0.07962252  0.66239331  0.59585000    -0.39700
O2790       O  0.06048910  0.66762729  0.58014118    -0.39700
C2791       C  0.15288374  0.76015369  0.52338938    -0.12000
C2792       C  0.14221525  0.77093410  0.52941350     0.05000
C2793       C  0.14369392  0.78673085  0.52541759    -0.07300
C2794       C  0.15460526  0.79130938  0.51429013    -0.08100
C2795       C  0.16471719  0.78044072  0.50732808    -0.02600
C2796       C  0.16427729  0.76480710  0.51261787     0.04200
N2797       N  0.17492249  0.75339736  0.50689264     0.66700
H2798       H  0.15192851  0.74796613  0.52649165     0.15600
H2799       H  0.15513311  0.80349627  0.51110833     0.15300
N2800       N  0.13418425  0.79825753  0.53275756     0.74400
O2801       O  0.18734592  0.75084460  0.51427916    -0.39000
O2802       O  0.17038737  0.74364586  0.49690816    -0.39000
O2803       O  0.13577893  0.80097098  0.54707210    -0.39700
O2804       O  0.12342324  0.80485640  0.52526884    -0.39700
C2805       C  0.05330032  0.67281364  0.35524952    -0.12000
C2806       C  0.05801850  0.68803717  0.35201350     0.05000
C2807       C  0.05195902  0.69562433  0.33884327    -0.07300
C2808       C  0.04052018  0.68819725  0.32974765    -0.08100
C2809       C  0.03491692  0.67324827  0.33366707    -0.02600
C2810       C  0.04193418  0.66539884  0.34635862     0.04200
N2811       N  0.03724874  0.65012568  0.35095674     0.66700
H2812       H  0.05792632  0.66685742  0.36535012     0.15600
H2813       H  0.03550842  0.69445892  0.32004715     0.15300
N2814       N  0.05627600  0.71131229  0.33539325     0.74400
O2815       O  0.04506043  0.63852916  0.34644571    -0.39000
O2816       O  0.02809241  0.64860650  0.36229356    -0.39000
O2817       O  0.06774485  0.71393125  0.32665680    -0.39700
O2818       O  0.05001913  0.72242972  0.34267338    -0.39700
C2819       C  0.14640092  0.77808540  0.41904598    -0.12000
C2820       C  0.14457625  0.76192706  0.41898464     0.05000
C2821       C  0.15512499  0.75261659  0.42738050    -0.07300
C2822       C  0.16635238  0.75973686  0.43695147    -0.08100
C2823       C  0.16727758  0.77610239  0.43809399    -0.02600
C2824       C  0.15770144  0.78521108  0.42826093     0.04200
N2825       N  0.15895378  0.80179109  0.42773816     0.66700
H2826       H  0.13845010  0.78531740  0.41244118     0.15600
H2827       H  0.17371586  0.75247061  0.44413817     0.15300
N2828       N  0.15367105  0.73603617  0.42732731     0.74400
O2829       O  0.16724238  0.80797447  0.41736571    -0.39000
O2830       O  0.14902982  0.81000031  0.43478107    -0.39000
O2831       O  0.15957737  0.72822395  0.41640676    -0.39700
O2832       O  0.14464092  0.72947455  0.43681983    -0.39700
C2833       C  0.95898087  0.70710189  0.61302233    -0.12000
C2834       C  0.95200437  0.69853116  0.60100406     0.05000
C2835       C  0.95505504  0.68247156  0.59982615    -0.07300
C2836       C  0.96548164  0.67543350  0.61001976    -0.08100
C2837       C  0.97330879  0.68405039  0.62148003    -0.02600
C2838       C  0.96966202  0.70003372  0.62322153     0.04200
N2839       N  0.97744996  0.70947517  0.63444773     0.66700
H2840       H  0.95688862  0.71957480  0.61389297     0.15600
H2841       H  0.96765667  0.66301645  0.60869704     0.15300
N2842       N  0.94775295  0.67313600  0.58816996     0.74400
O2843       O  0.99005751  0.71604675  0.63084898    -0.39000
O2844       O  0.97021881  0.71389803  0.64640293    -0.39000
O2845       O  0.95570845  0.66807608  0.57694034    -0.39700
O2846       O  0.93459172  0.66725138  0.59086124    -0.39700
C2847       C  0.87509665  0.79539516  0.52758478    -0.12000
C2848       C  0.87459439  0.77963684  0.53165831     0.05000
C2849       C  0.86195456  0.77050596  0.52656148    -0.07300
C2850       C  0.85064026  0.77708659  0.51675930    -0.08100
C2851       C  0.85172643  0.79266572  0.51176324    -0.02600
C2852       C  0.86393541  0.80198006  0.51780430     0.04200
N2853       N  0.86561698  0.81803131  0.51376947     0.66700
H2854       H  0.88468840  0.80262003  0.53158673     0.15600
H2855       H  0.84136487  0.76967205  0.51241549     0.15300
N2856       N  0.86118230  0.75425300  0.53000077     0.74400
O2857       O  0.86013738  0.82831775  0.52269623    -0.39000
O2858       O  0.87561822  0.82186021  0.50376669    -0.39000
O2859       O  0.85105536  0.74934535  0.53938370    -0.39700
O2860       O  0.86825522  0.74467895  0.52140932    -0.39700
C2861       C  0.94578785  0.67994294  0.35494294    -0.12000
C2862       C  0.94417836  0.69593748  0.35235038     0.05000
C2863       C  0.95197320  0.70277447  0.33971234    -0.07300
C2864       C  0.96221414  0.69375241  0.33074684    -0.08100
C2865       C  0.96492584  0.67795934  0.33422389    -0.02600
C2866       C  0.95603011  0.67092405  0.34616680     0.04200
N2867       N  0.95760566  0.65481932  0.35009466     0.66700
H2868       H  0.93975348  0.67454278  0.36463784     0.15600
H2869       H  0.96866030  0.69939113  0.32148081     0.15300
N2870       N  0.95072647  0.71907909  0.33669921     0.74400
O2871       O  0.96757998  0.65089977  0.36011460    -0.39000
O2872       O  0.94645216  0.64570933  0.34729080    -0.39000
O2873       O  0.96121966  0.72814017  0.34152058    -0.39700
O2874       O  0.94122680  0.72381741  0.32657521    -0.39700
C2875       C  0.86005548  0.77008947  0.42821854    -0.12000
C2876       C  0.87252485  0.77978403  0.42406882     0.05000
C2877       C  0.87249869  0.79537768  0.42908494    -0.07300
C2878       C  0.86065926  0.80075710  0.43869175    -0.08100
C2879       C  0.84875969  0.79086960  0.44400695    -0.02600
C2880       C  0.84825012  0.77542606  0.43822771     0.04200
N2881       N  0.83635123  0.76481825  0.44286332     0.66700
H2882       H  0.85996881  0.75798993  0.42444395     0.15600
H2883       H  0.86127287  0.81281964  0.44250247     0.15300
N2884       N  0.88466010  0.80589264  0.42485605     0.74400
O2885       O  0.82506641  0.76229401  0.43383493    -0.39000
O2886       O  0.83899117  0.75543196  0.45382049    -0.39000
O2887       O  0.88264162  0.81487486  0.41344592    -0.39700
O2888       O  0.89511103  0.80907437  0.43465101    -0.39700
C2889       C  0.70039775  0.03523793  0.61904274    -0.12000
C2890       C  0.71659043  0.03333403  0.61914183     0.05000
C2891       C  0.72320334  0.02214225  0.62914835    -0.07300
C2892       C  0.71364239  0.01285817  0.63848093    -0.08100
C2893       C  0.69736564  0.01406129  0.63779311    -0.02600
C2894       C  0.69074593  0.02562365  0.62804938     0.04200
N2895       N  0.67428025  0.02752677  0.62679462     0.66700
H2896       H  0.69511751  0.04369895  0.61126021     0.15600
H2897       H  0.71907115  0.00411516  0.64583398     0.15300
N2898       N  0.73965383  0.01991361  0.62983763     0.74400
O2899       O  0.66768954  0.03832846  0.63424558    -0.39000
O2900       O  0.66710789  0.02098725  0.61579167    -0.39000
O2901       O  0.74742961  0.02706349  0.64001587    -0.39700
O2902       O  0.74566253  0.00839889  0.62297611    -0.39700
C2903       C  0.78618012  0.14424584  0.53660826    -0.12000
C2904       C  0.77929548  0.15232738  0.52418276     0.05000
C2905       C  0.76342360  0.14968712  0.52087003    -0.07300
C2906       C  0.75529995  0.13810285  0.52893523    -0.08100
C2907       C  0.76249400  0.12933907  0.54065254    -0.02600
C2908       C  0.77789490  0.13294259  0.54494662     0.04200
N2909       N  0.78573226  0.12432578  0.55678082     0.66700
H2910       H  0.79833336  0.14624884  0.53946617     0.15600
H2911       H  0.74342878  0.13541155  0.52550330     0.15300
N2912       N  0.75574275  0.15766342  0.50849396     0.74400
O2913       O  0.79300516  0.11206853  0.55320150    -0.39000
O2914       O  0.78833787  0.13071126  0.56971929    -0.39000
O2915       O  0.75344753  0.15069891  0.49579687    -0.39700
O2916       O  0.74841537  0.17008000  0.51134497    -0.39700
C2917       C  0.69362556  0.04473217  0.36197513    -0.12000
C2918       C  0.70939164  0.04812161  0.35958551     0.05000
C2919       C  0.71696054  0.04161311  0.34659997    -0.07300
C2920       C  0.70890141  0.03126076  0.33682819    -0.08100
C2921       C  0.69336404  0.02704083  0.33982807    -0.02600
C2922       C  0.68558334  0.03437939  0.35232452     0.04200
N2923       N  0.66960511  0.03127584  0.35564655     0.66700
H2924       H  0.68760589  0.04971504  0.37190002     0.15600
H2925       H  0.71517357  0.02582142  0.32731749     0.15300
N2926       N  0.73316772  0.04412782  0.34403880     0.74400
O2927       O  0.66621685  0.02168125  0.36620240    -0.39000
O2928       O  0.65932865  0.04060811  0.35084320    -0.39000
O2929       O  0.74289325  0.03461665  0.34958158    -0.39700
O2930       O  0.73740884  0.05346910  0.33357248    -0.39700
C2931       C  0.77517697  0.13808943  0.43936839    -0.12000
C2932       C  0.78547813  0.12572384  0.43632356     0.05000
C2933       C  0.80015999  0.12577990  0.44370484    -0.07300
C2934       C  0.80381713  0.13735080  0.45447006    -0.08100
C2935       C  0.79327156  0.14924875  0.45830714    -0.02600
C2936       C  0.77893815  0.14983841  0.45019689     0.04200
N2937       N  0.76789650  0.16193316  0.45307580     0.66700
H2938       H  0.76382320  0.13831873  0.43378123     0.15600
H2939       H  0.81516043  0.13679626  0.46004821     0.15300
N2940       N  0.81167416  0.11423078  0.44035543     0.74400
O2941       O  0.76818126  0.17407445  0.44483687    -0.39000
O2942       O  0.75604864  0.15908420  0.46121603    -0.39000
O2943       O  0.82114942  0.11664723  0.42945092    -0.39700
O2944       O  0.81502272  0.10424148  0.45057464    -0.39700
C2945       C  0.68795387  0.93386292  0.60385775    -0.12000
C2946       C  0.70300542  0.92803599  0.60612282     0.05000
C2947       C  0.71078830  0.93131971  0.62014120    -0.07300
C2948       C  0.70380891  0.94117430  0.63108982    -0.08100
C2949       C  0.68910386  0.94789396  0.62837711    -0.02600
C2950       C  0.68093246  0.94363863  0.61475630     0.04200
N2951       N  0.66568010  0.94940208  0.61150910     0.66700
H2952       H  0.68176737  0.93128494  0.59313924     0.15600
H2953       H  0.71029265  0.94404726  0.64154328     0.15300
N2954       N  0.72624095  0.92585639  0.62290011     0.74400
O2955       O  0.66412148  0.96138246  0.60317274    -0.39000
O2956       O  0.65410503  0.94067767  0.61375962    -0.39000
O2957       O  0.73760887  0.93462351  0.61987639    -0.39700
O2958       O  0.72830986  0.91408521  0.63141886    -0.39700
C2959       C  0.77408181  0.84197561  0.52630686    -0.12000
C2960       C  0.78344322  0.85269061  0.53436706     0.05000
C2961       C  0.79972203  0.85147999  0.53326272    -0.07300
C2962       C  0.80632334  0.84054957  0.52332362    -0.08100
C2963       C  0.79705295  0.83090810  0.51399953    -0.02600
C2964       C  0.78076227  0.83111401  0.51603307     0.04200
N2965       N  0.77083050  0.82159920  0.50671165     0.66700
H2966       H  0.76148209  0.84288821  0.52700346     0.15600
H2967       H  0.81892861  0.84026506  0.52219762     0.15300
N2968       N  0.80973995  0.86183037  0.54156125     0.74400
O2969       O  0.76447158  0.80979087  0.51266152    -0.39000
O2970       O  0.76582907  0.82677688  0.49394083    -0.39000
O2971       O  0.81569612  0.85736167  0.55418582    -0.39700
O2972       O  0.81563147  0.87329552  0.53455359    -0.39700
C2973       C  0.71068490  0.93978003  0.35370111    -0.12000
C2974       C  0.72636333  0.94428151  0.35333431     0.05000
C2975       C  0.73072510  0.95703232  0.34399643    -0.07300
C2976       C  0.71943616  0.96519755  0.33559860    -0.08100
C2977       C  0.70363781  0.96122628  0.33654279    -0.02600
C2978       C  0.69930375  0.94822165  0.34558981     0.04200
N2979       N  0.68351392  0.94319433  0.34643492     0.66700
H2980       H  0.70710416  0.92999908  0.36086991     0.15600
H2981       H  0.72305655  0.97512958  0.32865608     0.15300
N2982       N  0.74657855  0.96187284  0.34289854     0.74400
O2983       O  0.67939044  0.93151227  0.33857421    -0.39000
O2984       O  0.67528988  0.94738639  0.35781864    -0.39000
O2985       O  0.75479058  0.95693215  0.33180719    -0.39700
O2986       O  0.75100764  0.97370984  0.35037855    -0.39700
C2987       C  0.78575938  0.84877704  0.42724411    -0.12000
C2988       C  0.77026542  0.85007948  0.43194441     0.05000
C2989       C  0.76456599  0.83998499  0.44350268    -0.07300
C2990       C  0.77475598  0.82967256  0.45099959    -0.08100
C2991       C  0.79062248  0.82934689  0.44722196    -0.02600
C2992       C  0.79596980  0.83858654  0.43475041     0.04200
N2993       N  0.81186696  0.83811365  0.42997351     0.66700
H2994       H  0.79034030  0.85664838  0.41820166     0.15600
H2995       H  0.77035086  0.82246439  0.46066313     0.15300
N2996       N  0.74857686  0.84054534  0.44797279     0.74400
O2997       O  0.81581023  0.82908702  0.41910146    -0.39000
O2998       O  0.82096260  0.84889370  0.43405867    -0.39000
O2999       O  0.73827195  0.83543753  0.43886193    -0.39700
O3000       O  0.74460425  0.84785418  0.46004910    -0.39700
loop_ 
_geom_bond_atom_site_label_1 
_geom_bond_atom_site_label_2 
_geom_bond_distance 
_geom_bond_site_symmetry_2 
_ccdc_geom_bond_type 
N1            N2   1.321       .  A
N1            C5   1.348       .  A
N1           Cu9   2.087       .  S
N2            C3   1.341       .  A
N2           Cu8   2.062       .  S
C3            C4   1.381       .  A
C3            H6   1.085       .  S
C4            C5   1.387       .  A
C4         C2988   1.474       .  S
C5            H7   1.084       .  S
Cu8          N11   2.061       .  S
Cu9          N19   2.089       .  S
Cu10         N12   2.064       .  S
Cu10         N18   2.064       .  S
N11          N12   1.322       .  A
N11          C15   1.342       .  A
N12          C13   1.345       .  A
C13          C14   1.380       .  A
C13          H16   1.082       .  S
C14          C15   1.377       .  A
C14         C110   1.455       .  S
C15          H17   1.081       .  S
N18          N19   1.323       .  A
N18          C22   1.342       .  A
N19          C20   1.348       .  A
C20          C21   1.389       .  A
C20          H23   1.081       .  S
C21          C22   1.381       .  A
C21        C2974   1.481       .  S
C22          H24   1.082       .  S
N25          N26   1.324       .  A
N25          C29   1.350       .  A
N25         Cu33   2.086       .  S
N26          C27   1.339       .  A
N26         Cu32   2.069       .  S
C27          C28   1.379       .  A
C27          H30   1.083       .  S
C28          C29   1.386       .  A
C28        C2960   1.475       .  S
C29          H31   1.082       .  S
Cu32         N35   2.067       .  S
Cu33         N43   2.086       .  S
Cu34         N36   2.057       .  S
Cu34         N42   2.055       .  S
N35          N36   1.319       .  A
N35          C39   1.347       .  A
N36          C37   1.341       .  A
C37          C38   1.381       .  A
C37          H40   1.082       .  S
C38          C39   1.384       .  A
C38         C107   1.464       .  S
C39          H41   1.081       .  S
N42          N43   1.322       .  A
N42          C46   1.337       .  A
N43          C44   1.351       .  A
C44          C45   1.389       .  A
C44          H47   1.082       .  S
C45          C46   1.377       .  A
C45        C2946   1.476       .  S
C46          H48   1.081       .  S
N49          N50   1.323       .  A
N49          C53   1.355       .  A
N49         Cu57   2.114       .  S
N50          C51   1.337       .  A
N50         Cu56   2.058       .  S
C51          C52   1.379       .  A
C51          H54   1.083       .  S
C52          C53   1.396       .  A
C52        C2932   1.491       .  S
C53          H55   1.081       .  S
Cu56         N59   2.058       .  S
Cu57         N67   2.113       .  S
Cu58         N60   2.055       .  S
Cu58         N66   2.052       .  S
N59          N60   1.318       .  A
N59          C63   1.346       .  A
N60          C61   1.340       .  A
C61          C62   1.382       .  A
C61          H64   1.082       .  S
C62          C63   1.383       .  A
C62         C108   1.463       .  S
C63          H65   1.081       .  S
N66          N67   1.322       .  A
N66          C70   1.337       .  A
N67          C68   1.356       .  A
C68          C69   1.395       .  A
C68          H71   1.082       .  S
C69          C70   1.376       .  A
C69        C2918   1.484       .  S
C70          H72   1.082       .  S
N73          N74   1.323       .  A
N73          C77   1.354       .  A
N73         Cu81   2.107       .  S
N74          C75   1.340       .  A
N74         Cu80   2.059       .  S
C75          C76   1.377       .  A
C75          H78   1.082       .  S
C76          C77   1.391       .  A
C76        C2907   1.479       .  S
C77          H79   1.082       .  S
Cu80         N83   2.059       .  S
Cu81         N91   2.107       .  S
Cu82         N84   2.065       .  S
Cu82         N90   2.065       .  S
N83          N84   1.321       .  A
N83          C87   1.343       .  A
N84          C85   1.344       .  A
C85          C86   1.380       .  A
C85          H88   1.081       .  S
C86          C87   1.379       .  A
C86         C109   1.456       .  S
C87          H89   1.081       .  S
N90          N91   1.323       .  A
N90          C94   1.342       .  A
N91          C92   1.352       .  A
C92          C93   1.392       .  A
C92          H95   1.081       .  S
C93          C94   1.380       .  A
C93        C2890   1.484       .  S
C94          H96   1.083       .  S
O97        Cu105   2.021       .  S
O97         C107   1.279       .  A
O98        Cu105   2.020   1_545  S
O98         C108   1.279       .  A
O99        Cu105   2.002   1_545  S
O99         C109   1.276       .  A
O100       Cu105   1.998       .  S
O100        C110   1.275       .  A
O101       Cu106   2.005       .  S
O101        C110   1.277       .  A
O102       Cu106   2.003   1_545  S
O102        C109   1.276       .  A
O103       Cu106   1.986   1_545  S
O103        C108   1.275       .  A
O104       Cu106   1.988       .  S
O104        C107   1.275       .  A
Cu105      Cu106   2.376       .  S
N111        N112   1.323       .  A
N111        C115   1.353       .  A
N111       Cu119   2.089       .  S
N112        C113   1.336       .  A
N112       Cu118   2.055       .  S
C113        C114   1.376       .  A
C113        H116   1.081       .  S
C114        C115   1.389       .  A
C114       C2862   1.474       .  S
C115        H117   1.082       .  S
Cu118       N121   2.056       .  S
Cu119       N129   2.090       .  S
Cu120       N122   2.061       .  S
Cu120       N128   2.063       .  S
N121        N122   1.319       .  A
N121        C125   1.343       .  A
N122        C123   1.344       .  A
C123        C124   1.383       .  A
C123        H126   1.082       .  S
C124        C125   1.382       .  A
C124        C218   1.463       .  S
C125        H127   1.082       .  S
N128        N129   1.323       .  A
N128        C132   1.338       .  A
N129        C130   1.351       .  A
C130        C131   1.388       .  A
C130        H133   1.081       .  S
C131        C132   1.379       .  A
C131       C2876   1.478       .  S
C132        H134   1.083       .  S
N135        N136   1.321       .  A
N135        C139   1.351       .  A
N135       Cu143   2.087       .  S
N136        C137   1.338       .  A
N136       Cu142   2.052       .  S
C137        C138   1.378       .  A
C137        H140   1.083       .  S
C138        C139   1.389       .  A
C138       C2834   1.477       .  S
C139        H141   1.081       .  S
Cu142       N145   2.052       .  S
Cu143       N153   2.090       .  S
Cu144       N146   2.065       .  S
Cu144       N152   2.065       .  S
N145        N146   1.320       .  A
N145        C149   1.340       .  A
N146        C147   1.346       .  A
C147        C148   1.384       .  A
C147        H150   1.082       .  S
C148        C149   1.379       .  A
C148        C219   1.462       .  S
C149        H151   1.081       .  S
N152        N153   1.324       .  A
N152        C156   1.338       .  A
N153        C154   1.352       .  A
C154        C155   1.389       .  A
C154        H157   1.083       .  S
C155        C156   1.379       .  A
C155       C2848   1.480       .  S
C156        H158   1.082       .  S
N159        N160   1.321       .  A
N159        C163   1.353       .  A
N159       Cu167   2.090       .  S
N160        C161   1.336       .  A
N160       Cu166   2.048       .  S
C161        C162   1.376       .  A
C161        H164   1.082       .  S
C162        C163   1.391       .  A
C162       C2806   1.477       .  S
C163        H165   1.081       .  S
Cu166       N169   2.049       .  S
Cu167       N177   2.093       .  S
Cu168       N170   2.065       .  S
Cu168       N176   2.068       .  S
N169        N170   1.319       .  A
N169        C173   1.339       .  A
N170        C171   1.347       .  A
C171        C172   1.385       .  A
C171        H174   1.082       .  S
C172        C173   1.379       .  A
C172        C220   1.462       .  S
C173        H175   1.082       .  S
N176        N177   1.325       .  A
N176        C180   1.339       .  A
N177        C178   1.352       .  A
C178        C179   1.386       .  A
C178        H181   1.082       .  S
C179        C180   1.376       .  A
C179       C2820   1.473       .  S
C180        H182   1.082       .  S
N183        N184   1.322       .  A
N183        C187   1.353       .  A
N183       Cu191   2.098       .  S
N184        C185   1.337       .  A
N184       Cu190   2.054       .  S
C185        C186   1.376       .  A
C185        H188   1.083       .  S
C186        C187   1.390       .  A
C186       C2778   1.476       .  S
C187        H189   1.081       .  S
Cu190       N193   2.054       .  S
Cu191       N201   2.099       .  S
Cu192       N194   2.065       .  S
Cu192       N200   2.066       .  S
N193        N194   1.319       .  A
N193        C197   1.342       .  A
N194        C195   1.345       .  A
C195        C196   1.384       .  A
C195        H198   1.081       .  S
C196        C197   1.381       .  A
C196        C217   1.463       .  S
C197        H199   1.081       .  S
N200        N201   1.324       .  A
N200        C204   1.339       .  A
N201        C202   1.353       .  A
C202        C203   1.389       .  A
C202        H205   1.081       .  S
C203        C204   1.378       .  A
C203       C2792   1.480       .  S
C204        H206   1.081       .  S
O207       Cu215   2.007       .  S
O207        C217   1.277       .  A
O208       Cu215   2.008   1_655  S
O208        C218   1.277       .  A
O209       Cu215   2.012   1_655  S
O209        C219   1.278       .  A
O210       Cu215   2.014       .  S
O210        C220   1.278       .  A
O211       Cu216   1.990       .  S
O211        C220   1.276       .  A
O212       Cu216   1.989   1_655  S
O212        C219   1.276       .  A
O213       Cu216   1.998   1_655  S
O213        C218   1.276       .  A
O214       Cu216   2.000       .  S
O214        C217   1.277       .  A
Cu215      Cu216   2.378       .  S
N221        N222   1.322       .  A
N221        C225   1.351       .  A
N221       Cu229   2.096       .  S
N222        C223   1.343       .  A
N222       Cu228   2.076       .  S
C223        C224   1.383       .  A
C223        H226   1.083       .  S
C224        C225   1.391       .  A
C224       C2764   1.483       .  S
C225        H227   1.081       .  S
Cu228       N231   2.076       .  S
Cu229       N239   2.096       .  S
Cu230       N232   2.062       .  S
Cu230       N238   2.062       .  S
N231        N232   1.322       .  A
N231        C235   1.346       .  A
N232        C233   1.344       .  A
C233        C234   1.379       .  A
C233        H236   1.081       .  S
C234        C235   1.382       .  A
C234        C327   1.460       .  S
C235        H237   1.081       .  S
N238        N239   1.323       .  A
N238        C242   1.342       .  A
N239        C240   1.351       .  A
C240        C241   1.389       .  A
C240        H243   1.082       .  S
C241        C242   1.379       .  A
C241       C2750   1.479       .  S
C242        H244   1.082       .  S
N245        N246   1.323       .  A
N245        C249   1.350       .  A
N245       Cu253   2.095       .  S
N246        C247   1.343       .  A
N246       Cu252   2.069       .  S
C247        C248   1.380       .  A
C247        H250   1.082       .  S
C248        C249   1.388       .  A
C248       C2722   1.477       .  S
C249        H251   1.082       .  S
Cu252       N255   2.070       .  S
Cu253       N263   2.095       .  S
Cu254       N256   2.071       .  S
Cu254       N262   2.069       .  S
N255        N256   1.322       .  A
N255        C259   1.346       .  A
N256        C257   1.344       .  A
C257        C258   1.380       .  A
C257        H260   1.081       .  S
C258        C259   1.381       .  A
C258        C330   1.460       .  S
C259        H261   1.081       .  S
N262        N263   1.322       .  A
N262        C266   1.343       .  A
N263        C264   1.349       .  A
C264        C265   1.390       .  A
C264        H267   1.082       .  S
C265        C266   1.381       .  A
C265       C2736   1.479       .  S
C266        H268   1.083       .  S
N269        N270   1.322       .  A
N269        C273   1.352       .  A
N269       Cu277   2.099       .  S
N270        C271   1.341       .  A
N270       Cu276   2.066       .  S
C271        C272   1.381       .  A
C271        H274   1.082       .  S
C272        C273   1.392       .  A
C272       C2708   1.484       .  S
C273        H275   1.081       .  S
Cu276       N279   2.067       .  S
Cu277       N287   2.100       .  S
Cu278       N280   2.068       .  S
Cu278       N286   2.066       .  S
N279        N280   1.320       .  A
N279        C283   1.344       .  A
N280        C281   1.346       .  A
C281        C282   1.384       .  A
C281        H284   1.081       .  S
C282        C283   1.383       .  A
C282        C329   1.468   1_545  S
C283        H285   1.081       .  S
N286        N287   1.324       .  A
N286        C290   1.341       .  A
N287        C288   1.352       .  A
C288        C289   1.389       .  A
C288        H291   1.082       .  S
C289        C290   1.378       .  A
C289       C2694   1.479       .  S
C290        H292   1.082       .  S
N293        N294   1.321       .  A
N293        C297   1.350       .  A
N293       Cu301   2.093       .  S
N294        C295   1.340       .  A
N294       Cu300   2.056       .  S
C295        C296   1.380       .  A
C295        H298   1.083       .  S
C296        C297   1.392       .  A
C296       C2666   1.482       .  S
C297        H299   1.081       .  S
Cu300       N303   2.059       .  S
Cu301       N311   2.094       .  S
Cu302       N304   2.062       .  S
Cu302       N310   2.059       .  S
N303        N304   1.321       .  A
N303        C307   1.343       .  A
N304        C305   1.343       .  A
C305        C306   1.383       .  A
C305        H308   1.082       .  S
C306        C307   1.380       .  A
C306        C328   1.462   1_545  S
C307        H309   1.081       .  S
N310        N311   1.323       .  A
N310        C314   1.341       .  A
N311        C312   1.350       .  A
C312        C313   1.389       .  A
C312        H315   1.082       .  S
C313        C314   1.379       .  A
C313       C2680   1.481       .  S
C314        H316   1.081       .  S
O317       Cu325   2.008       .  S
O317        C327   1.277       .  A
O318       Cu325   1.994       .  S
O318        C328   1.275       .  A
O319       Cu325   2.006       .  S
O319        C329   1.277       .  A
O320       Cu325   2.013       .  S
O320        C330   1.277       .  A
O321       Cu326   2.002       .  S
O321        C330   1.276       .  A
O322       Cu326   2.013       .  S
O322        C329   1.278       .  A
O323       Cu326   2.010       .  S
O323        C328   1.278       .  A
O324       Cu326   2.005       .  S
O324        C327   1.276       .  A
Cu325      Cu326   2.379       .  S
N331        N332   1.323       .  A
N331        C335   1.353       .  A
N331       Cu339   2.102       .  S
N332        C333   1.341       .  A
N332       Cu338   2.064       .  S
C333        C334   1.379       .  A
C333        H336   1.083       .  S
C334        C335   1.391       .  A
C334       C2638   1.481       .  S
C335        H337   1.081       .  S
Cu338       N341   2.065       .  S
Cu339       N349   2.101       .  S
Cu340       N342   2.056       .  S
Cu340       N348   2.055       .  S
N341        N342   1.320       .  A
N341        C345   1.345       .  A
N342        C343   1.341       .  A
C343        C344   1.380       .  A
C343        H346   1.082       .  S
C344        C345   1.383       .  A
C344        C439   1.462       .  S
C345        H347   1.082       .  S
N348        N349   1.321       .  A
N348        C352   1.339       .  A
N349        C350   1.352       .  A
C350        C351   1.393       .  A
C350        H353   1.081       .  S
C351        C352   1.380       .  A
C351       C2652   1.484       .  S
C352        H354   1.083       .  S
N355        N356   1.322       .  A
N355        C359   1.351       .  A
N355       Cu363   2.098       .  S
N356        C357   1.340       .  A
N356       Cu362   2.058       .  S
C357        C358   1.379       .  A
C357        H360   1.083       .  S
C358        C359   1.391       .  A
C358       C2624   1.482       .  S
C359        H361   1.081       .  S
Cu362       N365   2.059       .  S
Cu363       N373   2.098       .  S
Cu364       N366   2.054       .  S
Cu364       N372   2.052       .  S
N365        N366   1.320       .  A
N365        C369   1.343       .  A
N366        C367   1.342       .  A
C367        C368   1.381       .  A
C367        H370   1.081       .  S
C368        C369   1.381       .  A
C368        C438   1.460       .  S
C369        H371   1.081       .  S
N372        N373   1.323       .  A
N372        C376   1.339       .  A
N373        C374   1.352       .  A
C374        C375   1.388       .  A
C374        H377   1.083       .  S
C375        C376   1.374       .  A
C375       C2610   1.472       .  S
C376        H378   1.082       .  S
N379        N380   1.321       .  A
N379        C383   1.352       .  A
N379       Cu387   2.108       .  S
N380        C381   1.341       .  A
N380       Cu386   2.057       .  S
C381        C382   1.379       .  A
C381        H384   1.083       .  S
C382        C383   1.394       .  A
C382       C2585   1.482       .  S
C383        H385   1.081       .  S
Cu386       N389   2.060       .  S
Cu387       N397   2.109       .  S
Cu388       N390   2.062       .  S
Cu388       N396   2.062       .  S
N389        N390   1.321       .  A
N389        C393   1.342       .  A
N390        C391   1.345       .  A
C391        C392   1.382       .  A
C391        H394   1.082       .  S
C392        C393   1.380       .  A
C392        C437   1.462       .  S
C393        H395   1.081       .  S
N396        N397   1.323       .  A
N396        C400   1.341       .  A
N397        C398   1.354       .  A
C398        C399   1.391       .  A
C398        H401   1.082       .  S
C399        C400   1.378       .  A
C399       C2596   1.481       .  S
C400        H402   1.082       .  S
N403        N404   1.321       .  A
N403        C407   1.354       .  A
N403       Cu411   2.106       .  S
N404        C405   1.337       .  A
N404       Cu410   2.050       .  S
C405        C406   1.380       .  A
C405        H408   1.082       .  S
C406        C407   1.397       .  A
C406       C2557   1.491       .  S
C407        H409   1.080       .  S
Cu410       N413   2.051       .  S
Cu411       N421   2.106       .  S
Cu412       N414   2.056       .  S
Cu412       N420   2.053       .  S
N413        N414   1.320       .  A
N413        C417   1.342       .  A
N414        C415   1.342       .  A
C415        C416   1.381       .  A
C415        H418   1.082       .  S
C416        C417   1.380       .  A
C416        C440   1.459       .  S
C417        H419   1.081       .  S
N420        N421   1.322       .  A
N420        C424   1.337       .  A
N421        C422   1.354       .  A
C422        C423   1.396       .  A
C422        H425   1.083       .  S
C423        C424   1.379       .  A
C423       C2568   1.489       .  S
C424        H426   1.081       .  S
O427       Cu435   2.005   1_545  S
O427        C437   1.277       .  A
O428       Cu435   2.001       .  S
O428        C438   1.277       .  A
O429       Cu435   1.997       .  S
O429        C439   1.276       .  A
O430       Cu435   1.994   1_545  S
O430        C440   1.276       .  A
O431       Cu436   2.001   1_545  S
O431        C440   1.277       .  A
O432       Cu436   2.005       .  S
O432        C439   1.277       .  A
O433       Cu436   1.998       .  S
O433        C438   1.276       .  A
O434       Cu436   1.995   1_545  S
O434        C437   1.276       .  A
Cu435      Cu436   2.379       .  S
N441        N442   1.321       .  A
N441        C445   1.351       .  A
N441       Cu449   2.090       .  S
N442        C443   1.339       .  A
N442       Cu448   2.055       .  S
C443        C444   1.380       .  A
C443        H446   1.081       .  S
C444        C445   1.391       .  A
C444       C2526   1.483       .  S
C445        H447   1.082       .  S
Cu448       N451   2.055       .  S
Cu449       N459   2.090       .  S
Cu450       N452   2.065       .  S
Cu450       N458   2.066       .  S
N451        N452   1.320       .  A
N451        C455   1.342       .  A
N452        C453   1.344       .  A
C453        C454   1.383       .  A
C453        H456   1.082       .  S
C454        C455   1.380       .  A
C454        C547   1.461       .  S
C455        H457   1.081       .  S
N458        N459   1.323       .  A
N458        C462   1.339       .  A
N459        C460   1.352       .  A
C460        C461   1.388       .  A
C460        H463   1.082       .  S
C461        C462   1.379       .  A
C461       C2540   1.479       .  S
C462        H464   1.081       .  S
N465        N466   1.323       .  A
N465        C469   1.354       .  A
N465       Cu473   2.098       .  S
N466        C467   1.337       .  A
N466       Cu472   2.054       .  S
C467        C468   1.376       .  A
C467        H470   1.081       .  S
C468        C469   1.391       .  A
C468       C2498   1.478       .  S
C469        H471   1.082       .  S
Cu472       N475   2.055       .  S
Cu473       N483   2.100       .  S
Cu474       N476   2.069       .  S
Cu474       N482   2.069       .  S
N475        N476   1.320       .  A
N475        C479   1.343       .  A
N476        C477   1.344       .  A
C477        C478   1.384       .  A
C477        H480   1.081       .  S
C478        C479   1.381       .  A
C478        C549   1.464       .  S
C479        H481   1.082       .  S
N482        N483   1.324       .  A
N482        C486   1.341       .  A
N483        C484   1.353       .  A
C484        C485   1.389       .  A
C484        H487   1.081       .  S
C485        C486   1.379       .  A
C485       C2512   1.480       .  S
C486        H488   1.083       .  S
N489        N490   1.325       .  A
N489        C493   1.352       .  A
N489       Cu497   2.084       .  S
N490        C491   1.337       .  A
N490       Cu496   2.068       .  S
C491        C492   1.376       .  A
C491        H494   1.081       .  S
C492        C493   1.386       .  A
C492       C2470   1.473       .  S
C493        H495   1.082       .  S
Cu496       N499   2.068       .  S
Cu497       N507   2.080       .  S
Cu498       N500   2.049       .  S
Cu498       N506   2.049       .  S
N499        N500   1.318       .  A
N499        C503   1.346       .  A
N500        C501   1.342       .  A
C501        C502   1.380       .  A
C501        H504   1.081       .  S
C502        C503   1.386       .  A
C502        C550   1.466       .  S
C503        H505   1.082       .  S
N506        N507   1.321       .  A
N506        C510   1.334       .  A
N507        C508   1.352       .  A
C508        C509   1.390       .  A
C508        H511   1.082       .  S
C509        C510   1.377       .  A
C509       C2487   1.476       .  S
C510        H512   1.081       .  S
N513        N514   1.322       .  A
N513        C517   1.353       .  A
N513       Cu521   2.106       .  S
N514        C515   1.341       .  A
N514       Cu520   2.062       .  S
C515        C516   1.379       .  A
C515        H518   1.083       .  S
C516        C517   1.393       .  A
C516       C2445   1.483       .  S
C517        H519   1.081       .  S
Cu520       N523   2.064       .  S
Cu521       N531   2.106       .  S
Cu522       N524   2.064       .  S
Cu522       N530   2.063       .  S
N523        N524   1.321       .  A
N523        C527   1.343       .  A
N524        C525   1.345       .  A
C525        C526   1.380       .  A
C525        H528   1.081       .  S
C526        C527   1.379       .  A
C526        C548   1.457       .  S
C527        H529   1.081       .  S
N530        N531   1.323       .  A
N530        C534   1.342       .  A
N531        C532   1.353       .  A
C532        C533   1.392       .  A
C532        H535   1.082       .  S
C533        C534   1.380       .  A
C533       C2456   1.485       .  S
C534        H536   1.082       .  S
O537       Cu545   2.000       .  S
O537        C547   1.276       .  A
O538       Cu545   2.003   1_554  S
O538        C548   1.276       .  A
O539       Cu545   1.999       .  S
O539        C549   1.276       .  A
O540       Cu545   2.010   1_554  S
O540        C550   1.278       .  A
O541       Cu546   2.003   1_554  S
O541        C550   1.276       .  A
O542       Cu546   2.011       .  S
O542        C549   1.278       .  A
O543       Cu546   2.006   1_554  S
O543        C548   1.276       .  A
O544       Cu546   2.002       .  S
O544        C547   1.277       .  A
Cu545      Cu546   2.378       .  S
N551        N552   1.324       .  A
N551        C555   1.355       .  A
N551       Cu559   2.111       .  S
N552        C553   1.340       .  A
N552       Cu558   2.062       .  S
C553        C554   1.376       .  A
C553        H556   1.082       .  S
C554        C555   1.390       .  A
C554       C2428   1.478       .  S
C555        H557   1.081       .  S
Cu558       N561   2.062       .  S
Cu559       N569   2.111       .  S
Cu560       N562   2.063       .  S
Cu560       N568   2.065       .  S
N561        N562   1.319       .  A
N561        C565   1.343       .  A
N562        C563   1.346       .  A
C563        C564   1.383       .  A
C563        H566   1.081       .  S
C564        C565   1.383       .  A
C564        C658   1.464       .  S
C565        H567   1.082       .  S
N568        N569   1.324       .  A
N568        C572   1.340       .  A
N569        C570   1.355       .  A
C570        C571   1.393       .  A
C570        H573   1.081       .  S
C571        C572   1.379       .  A
C571       C2417   1.486       .  S
C572        H574   1.083       .  S
N575        N576   1.321       .  A
N575        C579   1.353       .  A
N575       Cu583   2.084       .  S
N576        C577   1.334       .  A
N576       Cu582   2.055       .  S
C577        C578   1.381       .  A
C577        H580   1.081       .  S
C578        C579   1.392       .  A
C578       C2386   1.485       .  S
C579        H581   1.082       .  S
Cu582       N585   2.059       .  S
Cu583       N593   2.084       .  S
Cu584       N586   2.058       .  S
Cu584       N592   2.058       .  S
N585        N586   1.320       .  A
N585        C589   1.345       .  A
N586        C587   1.340       .  A
C587        C588   1.381       .  A
C587        H590   1.081       .  S
C588        C589   1.383       .  A
C588        C659   1.462       .  S
C589        H591   1.082       .  S
N592        N593   1.322       .  A
N592        C596   1.340       .  A
N593        C594   1.349       .  A
C594        C595   1.386       .  A
C594        H597   1.082       .  S
C595        C596   1.378       .  A
C595       C2400   1.473       .  S
C596        H598   1.082       .  S
N599        N600   1.324       .  A
N599        C603   1.354       .  A
N599       Cu607   2.110       .  S
N600        C601   1.339       .  A
N600       Cu606   2.063       .  S
C601        C602   1.378       .  A
C601        H604   1.084       .  S
C602        C603   1.392       .  A
C602       C2358   1.483       .  S
C603        H605   1.081       .  S
Cu606       N609   2.063       .  S
Cu607       N617   2.111       .  S
Cu608       N610   2.057       .  S
Cu608       N616   2.059       .  S
N609        N610   1.319       .  A
N609        C613   1.344       .  A
N610        C611   1.343       .  A
C611        C612   1.380       .  A
C611        H614   1.081       .  S
C612        C613   1.383       .  A
C612        C660   1.462   1_545  S
C613        H615   1.082       .  S
N616        N617   1.324       .  A
N616        C620   1.341       .  A
N617        C618   1.354       .  A
C618        C619   1.391       .  A
C618        H621   1.082       .  S
C619        C620   1.376       .  A
C619       C2372   1.478       .  S
C620        H622   1.082       .  S
N623        N624   1.323       .  A
N623        C627   1.349       .  A
N623       Cu631   2.083       .  S
N624        C625   1.339       .  A
N624       Cu630   2.060       .  S
C625        C626   1.378       .  A
C625        H628   1.082       .  S
C626        C627   1.388       .  A
C626       C2330   1.474       .  S
C627        H629   1.083       .  S
Cu630       N633   2.063       .  S
Cu631       N641   2.083       .  S
Cu632       N634   2.061       .  S
Cu632       N640   2.062       .  S
N633        N634   1.320       .  A
N633        C637   1.343       .  A
N634        C635   1.345       .  A
C635        C636   1.381       .  A
C635        H638   1.081       .  S
C636        C637   1.380       .  A
C636        C657   1.457   1_545  S
C637        H639   1.081   1_545  S
N640        N641   1.323       .  A
N640        C644   1.340       .  A
N641        C642   1.350       .  A
C642        C643   1.385       .  A
C642        H645   1.082       .  S
C643        C644   1.376       .  A
C643       C2344   1.470       .  S
C644        H646   1.083       .  S
O647       Cu655   1.989       .  S
O647        C657   1.274       .  A
O648       Cu655   1.996       .  S
O648        C658   1.276       .  A
O649       Cu655   1.990       .  S
O649        C659   1.276       .  A
O650       Cu655   2.005       .  S
O650        C660   1.277       .  A
O651       Cu656   2.000       .  S
O651        C660   1.276       .  A
O652       Cu656   2.012       .  S
O652        C659   1.278       .  A
O653       Cu656   2.015       .  S
O653        C658   1.278       .  A
O654       Cu656   2.020       .  S
O654        C657   1.278       .  A
Cu655      Cu656   2.379       .  S
N661        N662   1.322       .  A
N661        C665   1.348       .  A
N661       Cu669   2.084       .  S
N662        C663   1.342       .  A
N662       Cu668   2.063       .  S
C663        C664   1.380       .  A
C663        H666   1.083       .  S
C664        C665   1.387       .  A
C664       C2302   1.472       .  S
C665        H667   1.082       .  S
Cu668       N671   2.065       .  S
Cu669       N679   2.084       .  S
Cu670       N672   2.056       .  S
Cu670       N678   2.057       .  S
N671        N672   1.322       .  A
N671        C675   1.343       .  A
N672        C673   1.343       .  A
C673        C674   1.377       .  A
C673        H676   1.081       .  S
C674        C675   1.379       .  A
C674        C767   1.452       .  S
C675        H677   1.081       .  S
N678        N679   1.322       .  A
N678        C682   1.341       .  A
N679        C680   1.348       .  A
C680        C681   1.387       .  A
C680        H683   1.081       .  S
C681        C682   1.378       .  A
C681       C2316   1.475       .  S
C682        H684   1.082       .  S
N685        N686   1.323       .  A
N685        C689   1.355       .  A
N685       Cu693   2.102       .  S
N686        C687   1.337       .  A
N686       Cu692   2.052       .  S
C687        C688   1.376       .  A
C687        H690   1.081       .  S
C688        C689   1.392       .  A
C688       C2288   1.481       .  S
C689        H691   1.082       .  S
Cu692       N695   2.054       .  S
Cu693       N703   2.103       .  S
Cu694       N696   2.063       .  S
Cu694       N702   2.063       .  S
N695        N696   1.320       .  A
N695        C699   1.344       .  A
N696        C697   1.342       .  A
C697        C698   1.382       .  A
C697        H700   1.082       .  S
C698        C699   1.381       .  A
C698        C770   1.462       .  S
C699        H701   1.082       .  S
N702        N703   1.322       .  A
N702        C706   1.341       .  A
N703        C704   1.352       .  A
C704        C705   1.393       .  A
C704        H707   1.081       .  S
C705        C706   1.381       .  A
C705       C2274   1.486       .  S
C706        H708   1.083       .  S
N709        N710   1.323       .  A
N709        C713   1.350       .  A
N709       Cu717   2.103       .  S
N710        C711   1.344       .  A
N710       Cu716   2.070       .  S
C711        C712   1.382       .  A
C711        H714   1.084       .  S
C712        C713   1.391       .  A
C712       C2249   1.484       .  S
C713        H715   1.081       .  S
Cu716       N719   2.069       .  S
Cu717       N727   2.102       .  S
Cu718       N720   2.057       .  S
Cu718       N726   2.055       .  S
N719        N720   1.321       .  A
N719        C723   1.344       .  A
N720        C721   1.343       .  A
C721        C722   1.378       .  A
C721        H724   1.081       .  S
C722        C723   1.381       .  A
C722        C769   1.455   1_554  S
C723        H725   1.082   1_554  S
N726        N727   1.322       .  A
N726        C730   1.340       .  A
N727        C728   1.352       .  A
C728        C729   1.392       .  A
C728        H731   1.082       .  S
C729        C730   1.377       .  A
C729       C2260   1.479       .  S
C730        H732   1.082       .  S
N733        N734   1.325       .  A
N733        C737   1.351       .  A
N733       Cu741   2.094       .  S
N734        C735   1.340       .  A
N734       Cu740   2.070       .  S
C735        C736   1.378       .  A
C735        H738   1.081       .  S
C736        C737   1.387       .  A
C736       C2235   1.478       .  S
C737        H739   1.082       .  S
Cu740       N743   2.069       .  S
Cu741       N751   2.090       .  S
Cu742       N744   2.043       .  S
Cu742       N750   2.042       .  S
N743        N744   1.319       .  A
N743        C747   1.348       .  A
N744        C745   1.337       .  A
C745        C746   1.376       .  A
C745        H748   1.082       .  S
C746        C747   1.386       .  A
C746        C768   1.460   1_554  S
C747        H749   1.082       .  S
N750        N751   1.319       .  A
N750        C754   1.336       .  A
N751        C752   1.351       .  A
C752        C753   1.393       .  A
C752        H755   1.081       .  S
C753        C754   1.379       .  A
C753       C2221   1.481       .  S
C754        H756   1.083       .  S
O757       Cu765   1.996       .  S
O757        C767   1.276       .  A
O758       Cu765   2.010       .  S
O758        C768   1.277       .  A
O759       Cu765   2.004       .  S
O759        C769   1.276       .  A
O760       Cu765   2.015       .  S
O760        C770   1.279       .  A
O761       Cu766   1.988       .  S
O761        C770   1.275       .  A
O762       Cu766   1.996       .  S
O762        C769   1.275       .  A
O763       Cu766   1.988       .  S
O763        C768   1.276       .  A
O764       Cu766   1.999       .  S
O764        C767   1.275       .  A
Cu765      Cu766   2.381       .  S
N771        N772   1.322       .  A
N771        C775   1.349       .  A
N771       Cu779   2.084       .  S
N772        C773   1.340       .  A
N772       Cu778   2.059       .  S
C773        C774   1.379       .  A
C773        H776   1.084       .  S
C774        C775   1.387       .  A
C774       C2190   1.474       .  S
C775        H777   1.081       .  S
Cu778       N781   2.061       .  S
Cu779       N789   2.083       .  S
Cu780       N782   2.061       .  S
Cu780       N788   2.062       .  S
N781        N782   1.321       .  A
N781        C785   1.343       .  A
N782        C783   1.343       .  A
C783        C784   1.381       .  A
C783        H786   1.081       .  S
C784        C785   1.382       .  A
C784        C880   1.462       .  S
C785        H787   1.082       .  S
N788        N789   1.322       .  A
N788        C792   1.340       .  A
N789        C790   1.349       .  A
C790        C791   1.387       .  A
C790        H793   1.081       .  S
C791        C792   1.380       .  A
C791       C2204   1.478       .  S
C792        H794   1.083       .  S
N795        N796   1.322       .  A
N795        C799   1.353       .  A
N795       Cu803   2.101       .  S
N796        C797   1.340       .  A
N796       Cu802   2.059       .  S
C797        C798   1.379       .  A
C797        H800   1.081       .  S
C798        C799   1.392       .  A
C798       C2176   1.484       .  S
C799        H801   1.082       .  S
Cu802       N805   2.059       .  S
Cu803       N813   2.102       .  S
Cu804       N806   2.056       .  S
Cu804       N812   2.058       .  S
N805        N806   1.320       .  A
N805        C809   1.342       .  A
N806        C807   1.343       .  A
C807        C808   1.381       .  A
C807        H810   1.082       .  S
C808        C809   1.381       .  A
C808        C877   1.460       .  S
C809        H811   1.082       .  S
N812        N813   1.324       .  A
N812        C816   1.340       .  A
N813        C814   1.352       .  A
C814        C815   1.388       .  A
C814        H817   1.081       .  S
C815        C816   1.377       .  A
C815       C2162   1.476       .  S
C816        H818   1.084       .  S
N819        N820   1.322       .  A
N819        C823   1.352       .  A
N819       Cu827   2.096       .  S
N820        C821   1.338       .  A
N820       Cu826   2.050       .  S
C821        C822   1.377       .  A
C821        H824   1.083       .  S
C822        C823   1.390       .  A
C822       C2137   1.477       .  S
C823        H825   1.081       .  S
Cu826       N829   2.051       .  S
Cu827       N837   2.097       .  S
Cu828       N830   2.055       .  S
Cu828       N836   2.055       .  S
N829        N830   1.319       .  A
N829        C833   1.340       .  A
N830        C831   1.344       .  A
C831        C832   1.382       .  A
C831        H834   1.082       .  S
C832        C833   1.380       .  A
C832        C878   1.459       .  S
C833        H835   1.081       .  S
N836        N837   1.323       .  A
N836        C840   1.336       .  A
N837        C838   1.355       .  A
C838        C839   1.392       .  A
C838        H841   1.081       .  S
C839        C840   1.377       .  A
C839       C2148   1.481       .  S
C840        H842   1.082       .  S
N843        N844   1.323       .  A
N843        C847   1.351       .  A
N843       Cu851   2.092       .  S
N844        C845   1.341       .  A
N844       Cu850   2.062       .  S
C845        C846   1.378       .  A
C845        H848   1.082       .  S
C846        C847   1.388       .  A
C846       C2123   1.477       .  S
C847        H849   1.082       .  S
Cu850       N853   2.062       .  S
Cu851       N861   2.091       .  S
Cu852       N854   2.063       .  S
Cu852       N860   2.062       .  S
N853        N854   1.321       .  A
N853        C857   1.343       .  A
N854        C855   1.344       .  A
C855        C856   1.379       .  A
C855        H858   1.081       .  S
C856        C857   1.379       .  A
C856        C879   1.457       .  S
C857        H859   1.081       .  S
N860        N861   1.322       .  A
N860        C864   1.340       .  A
N861        C862   1.350       .  A
C862        C863   1.390       .  A
C862        H865   1.081       .  S
C863        C864   1.380       .  A
C863       C2109   1.479       .  S
C864        H866   1.082       .  S
O867       Cu875   1.993       .  S
O867        C877   1.276       .  A
O868       Cu875   2.004   1_554  S
O868        C878   1.277       .  A
O869       Cu875   2.005   1_554  S
O869        C879   1.276       .  A
O870       Cu875   2.002       .  S
O870        C880   1.277       .  A
O871       Cu876   2.000       .  S
O871        C880   1.276       .  A
O872       Cu876   2.000   1_554  S
O872        C879   1.276       .  A
O873       Cu876   1.991   1_554  S
O873        C878   1.276       .  A
O874       Cu876   2.004       .  S
O874        C877   1.277       .  A
Cu875      Cu876   2.379       .  S
N881        N882   1.323       .  A
N881        C885   1.355       .  A
N881       Cu889   2.109       .  S
N882        C883   1.337       .  A
N882       Cu888   2.052       .  S
C883        C884   1.374       .  A
C883        H886   1.083       .  S
C884        C885   1.392       .  A
C884       C2092   1.475       .  S
C885        H887   1.081       .  S
Cu888       N891   2.053       .  S
Cu889       N899   2.110       .  S
Cu890       N892   2.062       .  S
Cu890       N898   2.063       .  S
N891        N892   1.319       .  A
N891        C895   1.342       .  A
N892        C893   1.344       .  A
C893        C894   1.383       .  A
C893        H896   1.081       .  S
C894        C895   1.381       .  A
C894        C990   1.462       .  S
C895        H897   1.082       .  S
N898        N899   1.323       .  A
N898        C902   1.339       .  A
N899        C900   1.354       .  A
C900        C901   1.394       .  A
C900        H903   1.081       .  S
C901        C902   1.381       .  A
C901       C2078   1.489       .  S
C902        H904   1.083       .  S
N905        N906   1.325       .  A
N905        C909   1.350       .  A
N905       Cu913   2.090       .  S
N906        C907   1.340       .  A
N906       Cu912   2.062       .  S
C907        C908   1.376       .  A
C907        H910   1.082       .  S
C908        C909   1.385       .  A
C908       C2050   1.472       .  S
C909        H911   1.083       .  S
Cu912       N915   2.062       .  S
Cu913       N923   2.085       .  S
Cu914       N916   2.047       .  S
Cu914       N922   2.043       .  S
N915        N916   1.319       .  A
N915        C919   1.346       .  A
N916        C917   1.338       .  A
C917        C918   1.378       .  A
C917        H920   1.081       .  S
C918        C919   1.384       .  A
C918        C987   1.460       .  S
C919        H921   1.081       .  S
N922        N923   1.320       .  A
N922        C926   1.335       .  A
N923        C924   1.352       .  A
C924        C925   1.391       .  A
C924        H927   1.083       .  S
C925        C926   1.376       .  A
C925       C2064   1.475       .  S
C926        H928   1.081       .  S
N929        N930   1.323       .  A
N929        C933   1.351       .  A
N929       Cu937   2.092       .  S
N930        C931   1.339       .  A
N930       Cu936   2.063       .  S
C931        C932   1.377       .  A
C931        H934   1.082       .  S
C932        C933   1.388       .  A
C932       C2036   1.474       .  S
C933        H935   1.081       .  S
Cu936       N939   2.062       .  S
Cu937       N947   2.092       .  S
Cu938       N940   2.060       .  S
Cu938       N946   2.061       .  S
N939        N940   1.321       .  A
N939        C943   1.345       .  A
N940        C941   1.343       .  A
C941        C942   1.378       .  A
C941        H944   1.081       .  S
C942        C943   1.380       .  A
C942        C988   1.455       .  S
C943        H945   1.081       .  S
N946        N947   1.323       .  A
N946        C950   1.341       .  A
N947        C948   1.350       .  A
C948        C949   1.387       .  A
C948        H951   1.082       .  S
C949        C950   1.377       .  A
C949       C2022   1.474       .  S
C950        H952   1.082       .  S
N953        N954   1.323       .  A
N953        C957   1.353       .  A
N953       Cu961   2.107       .  S
N954        C955   1.341       .  A
N954       Cu960   2.058       .  S
C955        C956   1.378       .  A
C955        H958   1.084       .  S
C956        C957   1.392       .  A
C956       C1997   1.481       .  S
C957        H959   1.081       .  S
Cu960       N963   2.060       .  S
Cu961       N971   2.106       .  S
Cu962       N964   2.060       .  S
Cu962       N970   2.060       .  S
N963        N964   1.320       .  A
N963        C967   1.342       .  A
N964        C965   1.344       .  A
C965        C966   1.382       .  A
C965        H968   1.082       .  S
C966        C967   1.381       .  A
C966        C989   1.461       .  S
C967        H969   1.082       .  S
N970        N971   1.322       .  A
N970        C974   1.339       .  A
N971        C972   1.354       .  A
C972        C973   1.393       .  A
C972        H975   1.081       .  S
C973        C974   1.380       .  A
C973       C2008   1.485       .  S
C974        H976   1.083       .  S
O977       Cu985   1.988       .  S
O977        C987   1.276       .  A
O978       Cu985   1.994   1_455  S
O978        C988   1.274       .  A
O979       Cu985   2.003   1_455  S
O979        C989   1.277       .  A
O980       Cu985   1.998       .  S
O980        C990   1.277       .  A
O981       Cu986   2.004   1_655  S
O981        C990   1.277       .  A
O982       Cu986   1.998       .  S
O982        C989   1.276       .  A
O983       Cu986   2.009       .  S
O983        C988   1.277       .  A
O984       Cu986   2.008   1_655  S
O984        C987   1.277       .  A
Cu985      Cu986   2.379   1_655  S
N991        N992   1.322       .  A
N991        C995   1.351       .  A
N991       Cu999   2.085       .  S
N992        C993   1.337       .  A
N992       Cu998   2.058       .  S
C993        C994   1.379       .  A
C993        H996   1.082       .  S
C994        C995   1.389       .  A
C994       C1966   1.479       .  S
C995        H997   1.082       .  S
Cu998      N1001   2.058       .  S
Cu999      N1009   2.085       .  S
Cu1000     N1002   2.060       .  S
Cu1000     N1008   2.060       .  S
N1001      N1002   1.320       .  A
N1001      C1005   1.343       .  A
N1002      C1003   1.343       .  A
C1003      C1004   1.382       .  A
C1003      H1006   1.081       .  S
C1004      C1005   1.381       .  A
C1004      C1097   1.462       .  S
C1005      H1007   1.081       .  S
N1008      N1009   1.323       .  A
N1008      C1012   1.340       .  A
N1009      C1010   1.349       .  A
C1010      C1011   1.386       .  A
C1010      H1013   1.083       .  S
C1011      C1012   1.377       .  A
C1011      C1980   1.473       .  S
C1012      H1014   1.082       .  S
N1015      N1016   1.323       .  A
N1015      C1019   1.353       .  A
N1015     Cu1023   2.101       .  S
N1016      C1017   1.337       .  A
N1016     Cu1022   2.058       .  S
C1017      C1018   1.378       .  A
C1017      H1020   1.083       .  S
C1018      C1019   1.393       .  A
C1018      C1938   1.482       .  S
C1019      H1021   1.082       .  S
Cu1022     N1025   2.058       .  S
Cu1023     N1033   2.101       .  S
Cu1024     N1026   2.056       .  S
Cu1024     N1032   2.056       .  S
N1025      N1026   1.319       .  A
N1025      C1029   1.344       .  A
N1026      C1027   1.342       .  A
C1027      C1028   1.382       .  A
C1027      H1030   1.082       .  S
C1028      C1029   1.382       .  A
C1028      C1099   1.463       .  S
C1029      H1031   1.081       .  S
N1032      N1033   1.322       .  A
N1032      C1036   1.337       .  A
N1033      C1034   1.353       .  A
C1034      C1035   1.394       .  A
C1034      H1037   1.082       .  S
C1035      C1036   1.380       .  A
C1035      C1952   1.487       .  S
C1036      H1038   1.081       .  S
N1039      N1040   1.322       .  A
N1039      C1043   1.350       .  A
N1039     Cu1047   2.089       .  S
N1040      C1041   1.341       .  A
N1040     Cu1046   2.066       .  S
C1041      C1042   1.379       .  A
C1041      H1044   1.082       .  S
C1042      C1043   1.387       .  A
C1042      C1910   1.474       .  S
C1043      H1045   1.081       .  S
Cu1046     N1049   2.067       .  S
Cu1047     N1057   2.089       .  S
Cu1048     N1050   2.063       .  S
Cu1048     N1056   2.062       .  S
N1049      N1050   1.322       .  A
N1049      C1053   1.344       .  A
N1050      C1051   1.344       .  A
C1051      C1052   1.379       .  A
C1051      H1054   1.081       .  S
C1052      C1053   1.380       .  A
C1052      C1100   1.456       .  S
C1053      H1055   1.082       .  S
N1056      N1057   1.322       .  A
N1056      C1060   1.341       .  A
N1057      C1058   1.349       .  A
C1058      C1059   1.387       .  A
C1058      H1061   1.081       .  S
C1059      C1060   1.379       .  A
C1059      C1924   1.473       .  S
C1060      H1062   1.082       .  S
N1063      N1064   1.322       .  A
N1063      C1067   1.349       .  A
N1063     Cu1071   2.081       .  S
N1064      C1065   1.341       .  A
N1064     Cu1070   2.065       .  S
C1065      C1066   1.380       .  A
C1065      H1068   1.082       .  S
C1066      C1067   1.387       .  A
C1066      C1899   1.479       .  S
C1067      H1069   1.082       .  S
Cu1070     N1073   2.067       .  S
Cu1071     N1081   2.081       .  S
Cu1072     N1074   2.064       .  S
Cu1072     N1080   2.064       .  S
N1073      N1074   1.322       .  A
N1073      C1077   1.344       .  A
N1074      C1075   1.344       .  A
C1075      C1076   1.379       .  A
C1075      H1078   1.081       .  S
C1076      C1077   1.381       .  A
C1076      C1098   1.458       .  S
C1077      H1079   1.081       .  S
N1080      N1081   1.321       .  A
N1080      C1084   1.341       .  A
N1081      C1082   1.349       .  A
C1082      C1083   1.388       .  A
C1082      H1085   1.082       .  S
C1083      C1084   1.380       .  A
C1083      C1882   1.479       .  S
C1084      H1086   1.082       .  S
O1087     Cu1095   2.006       .  S
O1087      C1097   1.277       .  A
O1088     Cu1095   2.002   1_554  S
O1088      C1098   1.276       .  A
O1089     Cu1095   2.013       .  S
O1089      C1099   1.278       .  A
O1090     Cu1095   2.001   1_554  S
O1090      C1100   1.276       .  A
O1091     Cu1096   2.005   1_554  S
O1091      C1100   1.276       .  A
O1092     Cu1096   1.992       .  S
O1092      C1099   1.275       .  A
O1093     Cu1096   2.009   1_554  S
O1093      C1098   1.277       .  A
O1094     Cu1096   1.996       .  S
O1094      C1097   1.276       .  A
Cu1095    Cu1096   2.380       .  S
N1101      N1102   1.322       .  A
N1101      C1105   1.352       .  A
N1101     Cu1109   2.092       .  S
N1102      C1103   1.337       .  A
N1102     Cu1108   2.055       .  S
C1103      C1104   1.378       .  A
C1103      H1106   1.082       .  S
C1104      C1105   1.390       .  A
C1104      C1854   1.479       .  S
C1105      H1107   1.083       .  S
Cu1108     N1111   2.056       .  S
Cu1109     N1119   2.093       .  S
Cu1110     N1112   2.061       .  S
Cu1110     N1118   2.060       .  S
N1111      N1112   1.320       .  A
N1111      C1115   1.344       .  A
N1112      C1113   1.342       .  A
C1113      C1114   1.382       .  A
C1113      H1116   1.082       .  S
C1114      C1115   1.381       .  A
C1114      C1210   1.462       .  S
C1115      H1117   1.081       .  S
N1118      N1119   1.323       .  A
N1118      C1122   1.339       .  A
N1119      C1120   1.351       .  A
C1120      C1121   1.390       .  A
C1120      H1123   1.082       .  S
C1121      C1122   1.379       .  A
C1121      C1868   1.480       .  S
C1122      H1124   1.081       .  S
N1125      N1126   1.322       .  A
N1125      C1129   1.349       .  A
N1125     Cu1133   2.084       .  S
N1126      C1127   1.342       .  A
N1126     Cu1132   2.064       .  S
C1127      C1128   1.380       .  A
C1127      H1130   1.083       .  S
C1128      C1129   1.388       .  A
C1128      C1840   1.476       .  S
C1129      H1131   1.082       .  S
Cu1132     N1135   2.063       .  S
Cu1133     N1143   2.084       .  S
Cu1134     N1136   2.062       .  S
Cu1134     N1142   2.061       .  S
N1135      N1136   1.320       .  A
N1135      C1139   1.340       .  A
N1136      C1137   1.347       .  A
C1137      C1138   1.384       .  A
C1137      H1140   1.082       .  S
C1138      C1139   1.380       .  A
C1138      C1207   1.464       .  S
C1139      H1141   1.081       .  S
N1142      N1143   1.324       .  A
N1142      C1146   1.337       .  A
N1143      C1144   1.351       .  A
C1144      C1145   1.385       .  A
C1144      H1147   1.081       .  S
C1145      C1146   1.375       .  A
C1145      C1826   1.469       .  S
C1146      H1148   1.082       .  S
N1149      N1150   1.324       .  A
N1149      C1153   1.354       .  A
N1149     Cu1157   2.098       .  S
N1150      C1151   1.336       .  A
N1150     Cu1156   2.054       .  S
C1151      C1152   1.373       .  A
C1151      H1154   1.082       .  S
C1152      C1153   1.388       .  A
C1152      C1798   1.472       .  S
C1153      H1155   1.081       .  S
Cu1156     N1159   2.054       .  S
Cu1157     N1167   2.098       .  S
Cu1158     N1160   2.059       .  S
Cu1158     N1166   2.060       .  S
N1159      N1160   1.318       .  A
N1159      C1163   1.344       .  A
N1160      C1161   1.342       .  A
C1161      C1162   1.382       .  A
C1161      H1164   1.082       .  S
C1162      C1163   1.382       .  A
C1162      C1208   1.462       .  S
C1163      H1165   1.082       .  S
N1166      N1167   1.323       .  A
N1166      C1170   1.338       .  A
N1167      C1168   1.353       .  A
C1168      C1169   1.392       .  A
C1168      H1171   1.081       .  S
C1169      C1170   1.378       .  A
C1169      C1812   1.482       .  S
C1170      H1172   1.083       .  S
N1173      N1174   1.324       .  A
N1173      C1177   1.354       .  A
N1173     Cu1181   2.102       .  S
N1174      C1175   1.337       .  A
N1174     Cu1180   2.054       .  S
C1175      C1176   1.375       .  A
C1175      H1178   1.083       .  S
C1176      C1177   1.390       .  A
C1176      C1770   1.477       .  S
C1177      H1179   1.082       .  S
Cu1180     N1183   2.054       .  S
Cu1181     N1191   2.102       .  S
Cu1182     N1184   2.054       .  S
Cu1182     N1190   2.055       .  S
N1183      N1184   1.318       .  A
N1183      C1187   1.345       .  A
N1184      C1185   1.340       .  A
C1185      C1186   1.381       .  A
C1185      H1188   1.082       .  S
C1186      C1187   1.382       .  A
C1186      C1209   1.461       .  S
C1187      H1189   1.082       .  S
N1190      N1191   1.323       .  A
N1190      C1194   1.339       .  A
N1191      C1192   1.353       .  A
C1192      C1193   1.390       .  A
C1192      H1195   1.081       .  S
C1193      C1194   1.375       .  A
C1193      C1787   1.475       .  S
C1194      H1196   1.085       .  S
O1197     Cu1205   2.014       .  S
O1197      C1207   1.278       .  A
O1198     Cu1205   2.011   1_455  S
O1198      C1208   1.278       .  A
O1199     Cu1205   2.012   1_455  S
O1199      C1209   1.278       .  A
O1200     Cu1205   2.011       .  S
O1200      C1210   1.278       .  A
O1201     Cu1206   1.991       .  S
O1201      C1210   1.275       .  A
O1202     Cu1206   1.989   1_455  S
O1202      C1209   1.275       .  A
O1203     Cu1206   1.993   1_455  S
O1203      C1208   1.276       .  A
O1204     Cu1206   1.994       .  S
O1204      C1207   1.276       .  A
Cu1205    Cu1206   2.379       .  S
N1211      N1212   1.323       .  A
N1211      C1215   1.350       .  A
N1211     Cu1219   2.097       .  S
N1212      C1213   1.343       .  A
N1212     Cu1218   2.072       .  S
C1213      C1214   1.381       .  A
C1213      H1216   1.083       .  S
C1214      C1215   1.389       .  A
C1214      C1742   1.480       .  S
C1215      H1217   1.081       .  S
Cu1218     N1221   2.072       .  S
Cu1219     N1229   2.096       .  S
Cu1220     N1222   2.055       .  S
Cu1220     N1228   2.055       .  S
N1221      N1222   1.322       .  A
N1221      C1225   1.345       .  A
N1222      C1223   1.342       .  A
C1223      C1224   1.378       .  A
C1223      H1226   1.081       .  S
C1224      C1225   1.382       .  A
C1224      C1318   1.458       .  S
C1225      H1227   1.081       .  S
N1228      N1229   1.321       .  A
N1228      C1232   1.340       .  A
N1229      C1230   1.352       .  A
C1230      C1231   1.390       .  A
C1230      H1233   1.081       .  S
C1231      C1232   1.379       .  A
C1231      C1756   1.480       .  S
C1232      H1234   1.082       .  S
N1235      N1236   1.324       .  A
N1235      C1239   1.351       .  A
N1235     Cu1243   2.103       .  S
N1236      C1237   1.343       .  A
N1236     Cu1242   2.075       .  S
C1237      C1238   1.382       .  A
C1237      H1240   1.084       .  S
C1238      C1239   1.391       .  A
C1238      C1728   1.482       .  S
C1239      H1241   1.081       .  S
Cu1242     N1245   2.076       .  S
Cu1243     N1253   2.102       .  S
Cu1244     N1246   2.056       .  S
Cu1244     N1252   2.058       .  S
N1245      N1246   1.321       .  A
N1245      C1249   1.345       .  A
N1246      C1247   1.342       .  A
C1247      C1248   1.377       .  A
C1247      H1250   1.081       .  S
C1248      C1249   1.384       .  A
C1248      C1320   1.456       .  S
C1249      H1251   1.082       .  S
N1252      N1253   1.321       .  A
N1252      C1256   1.342       .  A
N1253      C1254   1.351       .  A
C1254      C1255   1.394       .  A
C1254      H1257   1.081       .  S
C1255      C1256   1.382       .  A
C1255      C1717   1.490       .  S
C1256      H1258   1.081       .  S
N1259      N1260   1.324       .  A
N1259      C1263   1.350       .  A
N1259     Cu1267   2.098       .  S
N1260      C1261   1.343       .  A
N1260     Cu1266   2.073       .  S
C1261      C1262   1.382       .  A
C1261      H1264   1.083       .  S
C1262      C1263   1.388       .  A
C1262      C1703   1.482       .  S
C1263      H1265   1.081       .  S
Cu1266     N1269   2.072       .  S
Cu1267     N1277   2.096       .  S
Cu1268     N1270   2.049       .  S
Cu1268     N1276   2.047       .  S
N1269      N1270   1.321       .  A
N1269      C1273   1.348       .  A
N1270      C1271   1.338       .  A
C1271      C1272   1.375       .  A
C1271      H1274   1.081       .  S
C1272      C1273   1.383       .  A
C1272      C1319   1.454       .  S
C1273      H1275   1.081       .  S
N1276      N1277   1.320       .  A
N1276      C1280   1.340       .  A
N1277      C1278   1.350       .  A
C1278      C1279   1.392       .  A
C1278      H1281   1.081       .  S
C1279      C1280   1.378       .  A
C1279      C1686   1.477       .  S
C1280      H1282   1.083       .  S
N1283      N1284   1.323       .  A
N1283      C1287   1.352       .  A
N1283     Cu1291   2.088       .  S
N1284      C1285   1.338       .  A
N1284     Cu1290   2.059       .  S
C1285      C1286   1.376       .  A
C1285      H1288   1.083       .  S
C1286      C1287   1.387       .  A
C1286      C1675   1.473       .  S
C1287      H1289   1.082       .  S
Cu1290     N1293   2.058       .  S
Cu1291     N1301   2.088       .  S
Cu1292     N1294   2.060       .  S
Cu1292     N1300   2.064       .  S
N1293      N1294   1.318       .  A
N1293      C1297   1.342       .  A
N1294      C1295   1.346       .  A
C1295      C1296   1.384       .  A
C1295      H1298   1.082       .  S
C1296      C1297   1.381       .  A
C1296      C1317   1.463       .  S
C1297      H1299   1.082       .  S
N1300      N1301   1.324       .  A
N1300      C1304   1.338       .  A
N1301      C1302   1.351       .  A
C1302      C1303   1.386       .  A
C1302      H1305   1.082       .  S
C1303      C1304   1.377       .  A
C1303      C1658   1.468       .  S
C1304      H1306   1.082       .  S
O1307     Cu1315   1.999   1_455  S
O1307      C1317   1.276       .  A
O1308     Cu1315   1.998       .  S
O1308      C1318   1.275       .  A
O1309     Cu1315   1.991   1_455  S
O1309      C1319   1.275       .  A
O1310     Cu1315   2.013       .  S
O1310      C1320   1.277       .  A
O1311     Cu1316   1.991       .  S
O1311      C1320   1.275       .  A
O1312     Cu1316   2.010   1_455  S
O1312      C1319   1.276       .  A
O1313     Cu1316   2.007       .  S
O1313      C1318   1.277       .  A
O1314     Cu1316   2.012   1_455  S
O1314      C1317   1.278       .  A
Cu1315    Cu1316   2.380       .  S
O1321     Cu1329   2.002       .  S
O1321      C1331   1.277       .  A
O1322     Cu1329   2.004   1_455  S
O1322      C1332   1.276       .  A
O1323     Cu1329   2.020   1_455  S
O1323      C1333   1.280       .  A
O1324     Cu1329   2.027       .  S
O1324      C1334   1.280       .  A
O1325     Cu1330   2.011       .  S
O1325      C1334   1.279       .  A
O1326     Cu1330   2.023   1_455  S
O1326      C1333   1.278       .  A
O1327     Cu1330   2.023   1_455  S
O1327      C1332   1.280       .  A
O1328     Cu1330   2.024       .  S
O1328      C1331   1.280       .  A
Cu1329    Cu1330   2.368       .  S
C1331      C1857   1.489       .  S
C1332      C1689   1.479       .  S
C1333      C1801   1.491       .  S
C1334      C1745   1.487       .  S
O1335     Cu1343   1.996       .  S
O1335      C1345   1.274       .  A
O1336     Cu1343   1.994       .  S
O1336      C1346   1.278       .  A
O1337     Cu1343   2.012       .  S
O1337      C1347   1.280       .  A
O1338     Cu1343   2.006       .  S
O1338      C1348   1.278       .  A
O1339     Cu1344   2.025       .  S
O1339      C1348   1.279       .  A
O1340     Cu1344   2.023       .  S
O1340      C1347   1.278       .  A
O1341     Cu1344   2.043       .  S
O1341      C1346   1.281       .  A
O1342     Cu1344   2.043       .  S
O1342      C1345   1.284       .  A
Cu1343    Cu1344   2.366       .  S
C1345      C1731   1.486       .  S
C1346      C2935   1.496       .  S
C1347      C1759   1.493       .  S
C1348      C2904   1.485       .  S
O1349     Cu1357   2.030       .  S
O1349      C1359   1.279       .  A
O1350     Cu1357   2.037       .  S
O1350      C1360   1.280       .  A
O1351     Cu1357   2.016       .  S
O1351      C1361   1.280       .  A
O1352     Cu1357   2.020       .  S
O1352      C1362   1.280       .  A
O1353     Cu1358   2.012       .  S
O1353      C1362   1.277       .  A
O1354     Cu1358   2.014       .  S
O1354      C1361   1.277       .  A
O1355     Cu1358   1.996       .  S
O1355      C1360   1.278       .  A
O1356     Cu1358   1.994       .  S
O1356      C1359   1.278       .  A
Cu1357    Cu1358   2.367       .  S
C1359      C1672   1.485       .  S
C1360      C2711   1.495       .  S
C1361      C1700   1.482       .  S
C1362      C2683   1.491       .  S
O1363     Cu1371   2.022       .  S
O1363      C1373   1.280       .  A
O1364     Cu1371   2.035       .  S
O1364      C1374   1.280       .  A
O1365     Cu1371   2.017       .  S
O1365      C1375   1.278       .  A
O1366     Cu1371   2.015       .  S
O1366      C1376   1.280       .  A
O1367     Cu1372   2.006       .  S
O1367      C1376   1.277       .  A
O1368     Cu1372   2.007       .  S
O1368      C1375   1.278       .  A
O1369     Cu1372   2.005       .  S
O1369      C1374   1.279       .  A
O1370     Cu1372   2.011       .  S
O1370      C1373   1.278       .  A
Cu1371    Cu1372   2.367       .  S
C1373      C1927   1.488       .  S
C1374      C1843   1.495       .  S
C1375      C1896   1.477       .  S
C1376      C1871   1.491       .  S
O1377     Cu1385   1.988       .  S
O1377      C1387   1.274       .  A
O1378     Cu1385   1.990       .  S
O1378      C1388   1.274       .  A
O1379     Cu1385   2.016       .  S
O1379      C1389   1.279       .  A
O1380     Cu1385   2.007       .  S
O1380      C1390   1.281       .  A
O1381     Cu1386   2.026       .  S
O1381      C1390   1.278       .  A
O1382     Cu1386   2.032       .  S
O1382      C1389   1.281       .  A
O1383     Cu1386   2.057       .  S
O1383      C1388   1.284       .  A
O1384     Cu1386   2.058       .  S
O1384      C1387   1.284       .  A
Cu1385    Cu1386   2.363       .  S
C1387      C2151   1.498       .  S
C1388      C1784   1.493       .  S
C1389      C2120   1.496       .  S
C1390      C1815   1.493       .  S
O1391     Cu1399   1.991       .  S
O1391      C1401   1.275       .  A
O1392     Cu1399   1.987       .  S
O1392      C1402   1.277       .  A
O1393     Cu1399   2.005       .  S
O1393      C1403   1.277       .  A
O1394     Cu1399   1.999       .  S
O1394      C1404   1.278       .  A
O1395     Cu1400   2.038       .  S
O1395      C1404   1.280       .  A
O1396     Cu1400   2.039       .  S
O1396      C1403   1.282       .  A
O1397     Cu1400   2.033       .  S
O1397      C1402   1.280       .  A
O1398     Cu1400   2.028       .  S
O1398      C1401   1.281       .  A
Cu1399    Cu1400   2.363       .  S
C1401      C1969   1.487       .  S
C1402      C2218   1.491   1_556  S
C1403      C1913   1.498   1_556  S
C1404      C2277   1.496       .  S
O1405     Cu1413   2.003       .  S
O1405      C1415   1.277       .  A
O1406     Cu1413   2.008       .  S
O1406      C1416   1.278       .  A
O1407     Cu1413   1.999       .  S
O1407      C1417   1.276       .  A
O1408     Cu1413   1.998       .  S
O1408      C1418   1.279       .  A
O1409     Cu1414   2.030       .  S
O1409      C1418   1.278       .  A
O1410     Cu1414   2.023       .  S
O1410      C1417   1.281       .  A
O1411     Cu1414   2.009       .  S
O1411      C1416   1.278       .  A
O1412     Cu1414   2.011       .  S
O1412      C1415   1.279       .  A
Cu1413    Cu1414   2.368       .  S
C1415      C1983   1.487       .  S
C1416      C2067   1.482       .  S
C1417      C1955   1.489       .  S
C1418      C2095   1.483       .  S
O1419     Cu1427   2.038   1_455  S
O1419      C1429   1.282       .  A
O1420     Cu1427   2.052       .  S
O1420      C1430   1.283       .  A
O1421     Cu1427   2.016       .  S
O1421      C1431   1.277       .  A
O1422     Cu1427   2.020   1_455  S
O1422      C1432   1.278       .  A
O1423     Cu1428   2.026       .  S
O1423      C1432   1.280       .  A
O1424     Cu1428   2.025   1_655  S
O1424      C1431   1.280       .  A
O1425     Cu1428   1.988   1_655  S
O1425      C1430   1.276       .  A
O1426     Cu1428   1.988       .  S
O1426      C1429   1.274       .  A
Cu1427    Cu1428   2.366   1_655  S
C1429      C1661   1.489       .  S
C1430      C2081   1.497       .  S
C1431      C1714   1.479       .  S
C1432      C2025   1.495       .  S
O1433     Cu1441   2.014       .  S
O1433      C1443   1.279       .  A
O1434     Cu1441   2.015       .  S
O1434      C1444   1.278       .  A
O1435     Cu1441   1.980       .  S
O1435      C1445   1.276       .  A
O1436     Cu1441   1.970       .  S
O1436      C1446   1.274       .  A
O1437     Cu1442   2.053       .  S
O1437      C1446   1.283       .  A
O1438     Cu1442   2.057       .  S
O1438      C1445   1.283       .  A
O1439     Cu1442   2.025       .  S
O1439      C1444   1.281       .  A
O1440     Cu1442   2.027       .  S
O1440      C1443   1.279       .  A
Cu1441    Cu1442   2.364       .  S
C1443      C2039   1.489       .  S
C1444      C2179   1.496       .  S
C1445      C2011   1.493       .  S
C1446      C2207   1.492       .  S
O1447     Cu1455   2.030       .  S
O1447      C1457   1.281       .  A
O1448     Cu1455   2.032       .  S
O1448      C1458   1.280       .  A
O1449     Cu1455   2.017       .  S
O1449      C1459   1.280       .  A
O1450     Cu1455   2.028       .  S
O1450      C1460   1.279   1_556  A
O1451     Cu1456   1.987       .  S
O1451      C1460   1.278   1_556  A
O1452     Cu1456   2.002       .  S
O1452      C1459   1.276       .  A
O1453     Cu1456   1.983       .  S
O1453      C1458   1.276       .  A
O1454     Cu1456   1.997       .  S
O1454      C1457   1.275       .  A
Cu1455    Cu1456   2.370       .  S
C1457      C2246   1.476   1_556  S
C1458      C2193   1.485       .  S
C1459      C2305   1.479       .  S
C1460      C2134   1.486       .  S
O1461     Cu1469   2.042       .  S
O1461      C1471   1.282       .  A
O1462     Cu1469   2.029       .  S
O1462      C1472   1.280       .  A
O1463     Cu1469   2.018       .  S
O1463      C1473   1.278       .  A
O1464     Cu1469   2.022       .  S
O1464      C1474   1.279       .  A
O1465     Cu1470   2.012       .  S
O1465      C1474   1.278       .  A
O1466     Cu1470   2.005       .  S
O1466      C1473   1.279       .  A
O1467     Cu1470   2.005       .  S
O1467      C1472   1.277       .  A
O1468     Cu1470   2.011       .  S
O1468      C1471   1.278       .  A
Cu1469    Cu1470   2.366       .  S
C1471      C2375   1.495       .  S
C1472      C2291   1.488       .  S
C1473      C2347   1.489       .  S
C1474      C2319   1.488       .  S
O1475     Cu1483   1.999       .  S
O1475      C1485   1.276       .  A
O1476     Cu1483   2.000       .  S
O1476      C1486   1.276       .  A
O1477     Cu1483   2.024       .  S
O1477      C1487   1.281       .  A
O1478     Cu1483   2.019       .  S
O1478      C1488   1.279       .  A
O1479     Cu1484   2.017       .  S
O1479      C1488   1.279       .  A
O1480     Cu1484   2.027       .  S
O1480      C1487   1.279       .  A
O1481     Cu1484   2.038       .  S
O1481      C1486   1.282       .  A
O1482     Cu1484   2.034       .  S
O1482      C1485   1.281       .  A
Cu1483    Cu1484   2.365       .  S
C1485      C2232   1.486       .  S
C1486      C2599   1.492       .  S
C1487      C2263   1.496       .  S
C1488      C2571   1.495       .  S
O1489     Cu1497   1.988       .  S
O1489      C1499   1.276       .  A
O1490     Cu1497   1.986       .  S
O1490      C1500   1.275   1_565  A
O1491     Cu1497   2.005       .  S
O1491      C1501   1.279   1_565  A
O1492     Cu1497   2.009       .  S
O1492      C1502   1.279       .  A
O1493     Cu1498   2.031       .  S
O1493      C1502   1.280       .  A
O1494     Cu1498   2.028       .  S
O1494      C1501   1.279   1_565  A
O1495     Cu1498   2.052       .  S
O1495      C1500   1.283   1_565  A
O1496     Cu1498   2.055       .  S
O1496      C1499   1.283       .  A
Cu1497    Cu1498   2.364       .  S
C1499      C2414   1.498       .  S
C1500      C2669   1.489       .  S
C1501      C2361   1.493       .  S
C1502      C2725   1.497       .  S
O1503     Cu1511   2.036       .  S
O1503      C1513   1.281       .  A
O1504     Cu1511   2.030       .  S
O1504      C1514   1.279       .  A
O1505     Cu1511   2.061       .  S
O1505      C1515   1.283       .  A
O1506     Cu1511   2.057       .  S
O1506      C1516   1.284       .  A
O1507     Cu1512   1.996       .  S
O1507      C1516   1.275       .  A
O1508     Cu1512   1.985       .  S
O1508      C1515   1.276       .  A
O1509     Cu1512   2.005       .  S
O1509      C1514   1.279       .  A
O1510     Cu1512   1.998       .  S
O1510      C1513   1.276       .  A
Cu1511    Cu1512   2.365       .  S
C1513      C2543   1.494       .  S
C1514      C2403   1.487       .  S
C1515      C2515   1.497       .  S
C1516      C2431   1.489       .  S
O1517     Cu1525   1.998   1_554  S
O1517      C1527   1.276       .  A
O1518     Cu1525   2.012       .  S
O1518      C1528   1.279       .  A
O1519     Cu1525   2.042       .  S
O1519      C1529   1.281       .  A
O1520     Cu1525   2.043   1_554  S
O1520      C1530   1.283       .  A
O1521     Cu1526   1.978   1_554  S
O1521      C1530   1.273       .  A
O1522     Cu1526   1.982       .  S
O1522      C1529   1.276       .  A
O1523     Cu1526   2.019       .  S
O1523      C1528   1.279       .  A
O1524     Cu1526   2.013   1_554  S
O1524      C1527   1.278       .  A
Cu1525    Cu1526   2.368       .  S
C1527      C2106   1.473       .  S
C1528      C2529   1.493       .  S
C1529      C2165   1.480       .  S
C1530      C2473   1.491       .  S
O1531     Cu1539   2.033       .  S
O1531      C1541   1.280       .  A
O1532     Cu1539   2.032       .  S
O1532      C1542   1.279       .  A
O1533     Cu1539   2.029       .  S
O1533      C1543   1.281       .  A
O1534     Cu1539   2.049       .  S
O1534      C1544   1.282       .  A
O1535     Cu1540   1.982       .  S
O1535      C1544   1.276       .  A
O1536     Cu1540   1.983       .  S
O1536      C1543   1.274       .  A
O1537     Cu1540   1.998       .  S
O1537      C1542   1.279       .  A
O1538     Cu1540   2.006       .  S
O1538      C1541   1.278       .  A
Cu1539    Cu1540   2.366       .  S
C1541      C2459   1.485       .  S
C1542      C2655   1.494       .  S
C1543      C2484   1.483       .  S
C1544      C2627   1.494       .  S
O1545     Cu1553   2.006   1_545  S
O1545      C1555   1.279       .  A
O1546     Cu1553   2.012       .  S
O1546      C1556   1.279       .  A
O1547     Cu1553   1.989       .  S
O1547      C1557   1.276       .  A
O1548     Cu1553   1.991   1_545  S
O1548      C1558   1.275       .  A
O1549     Cu1554   2.044   1_545  S
O1549      C1558   1.283       .  A
O1550     Cu1554   2.054       .  S
O1550      C1557   1.283       .  A
O1551     Cu1554   2.024       .  S
O1551      C1556   1.279       .  A
O1552     Cu1554   2.024   1_545  S
O1552      C1555   1.279       .  A
Cu1553    Cu1554   2.367       .  S
C1555      C2582   1.489       .  S
C1556      C2753   1.488       .  S
C1557      C2641   1.494       .  S
C1558      C2697   1.486       .  S
O1559     Cu1567   2.024       .  S
O1559      C1569   1.280       .  A
O1560     Cu1567   2.036       .  S
O1560      C1570   1.281       .  A
O1561     Cu1567   2.030       .  S
O1561      C1571   1.281       .  A
O1562     Cu1567   2.038       .  S
O1562      C1572   1.281       .  A
O1563     Cu1568   2.006       .  S
O1563      C1572   1.279       .  A
O1564     Cu1568   2.010       .  S
O1564      C1571   1.277       .  A
O1565     Cu1568   2.003       .  S
O1565      C1570   1.277       .  A
O1566     Cu1568   2.010       .  S
O1566      C1569   1.277       .  A
Cu1567    Cu1568   2.368       .  S
C1569      C2739   1.482       .  S
C1570      C2823   1.492       .  S
C1571      C2767   1.482       .  S
C1572      C2795   1.496       .  S
O1573     Cu1581   1.990       .  S
O1573      C1583   1.274       .  A
O1574     Cu1581   1.989   1_455  S
O1574      C1584   1.277       .  A
O1575     Cu1581   2.003   1_455  S
O1575      C1585   1.277       .  A
O1576     Cu1581   1.994       .  S
O1576      C1586   1.276       .  A
O1577     Cu1582   2.029       .  S
O1577      C1586   1.280       .  A
O1578     Cu1582   2.040   1_455  S
O1578      C1585   1.282       .  A
O1579     Cu1582   2.033   1_455  S
O1579      C1584   1.279       .  A
O1580     Cu1582   2.030       .  S
O1580      C1583   1.282       .  A
Cu1581    Cu1582   2.367       .  S
C1583      C2865   1.488       .  S
C1584      C1773   1.482       .  S
C1585      C2809   1.497       .  S
C1586      C1829   1.481       .  S
O1587     Cu1595   2.032       .  S
O1587      C1597   1.281       .  A
O1588     Cu1595   2.036       .  S
O1588      C1598   1.282       .  A
O1589     Cu1595   2.040       .  S
O1589      C1599   1.280       .  A
O1590     Cu1595   2.052       .  S
O1590      C1600   1.282       .  A
O1591     Cu1596   1.969       .  S
O1591      C1600   1.275       .  A
O1592     Cu1596   1.971       .  S
O1592      C1599   1.275       .  A
O1593     Cu1596   1.997       .  S
O1593      C1598   1.275       .  A
O1594     Cu1596   1.994       .  S
O1594      C1597   1.275       .  A
Cu1595    Cu1596   2.367       .  S
C1597      C2991   1.479       .  S
C1598      C2851   1.494       .  S
C1599      C2963   1.477       .  S
C1600      C2879   1.492       .  S
O1601     Cu1609   2.009       .  S
O1601      C1611   1.277       .  A
O1602     Cu1609   2.015   1_545  S
O1602      C1612   1.278       .  A
O1603     Cu1609   2.030   1_545  S
O1603      C1613   1.281       .  A
O1604     Cu1609   2.026       .  S
O1604      C1614   1.279       .  A
O1605     Cu1610   2.004       .  S
O1605      C1614   1.278       .  A
O1606     Cu1610   2.003   1_545  S
O1606      C1613   1.277       .  A
O1607     Cu1610   2.023   1_545  S
O1607      C1612   1.280       .  A
O1608     Cu1610   2.025       .  S
O1608      C1611   1.280       .  A
Cu1609    Cu1610   2.368       .  S
C1611      C2613   1.481       .  S
C1612      C2921   1.493       .  S
C1613      C2554   1.494       .  S
C1614      C2977   1.483       .  S
O1615     Cu1623   2.039   1_655  S
O1615      C1625   1.281       .  A
O1616     Cu1623   2.043       .  S
O1616      C1626   1.282       .  A
O1617     Cu1623   2.040       .  S
O1617      C1627   1.280       .  A
O1618     Cu1623   2.029   1_655  S
O1618      C1628   1.281       .  A
O1619     Cu1624   1.990   1_655  S
O1619      C1628   1.274       .  A
O1620     Cu1624   1.985       .  S
O1620      C1627   1.277       .  A
O1621     Cu1624   1.992       .  S
O1621      C1626   1.277       .  A
O1622     Cu1624   1.981   1_655  S
O1622      C1625   1.276       .  A
Cu1623    Cu1624   2.368       .  S
C1625      C2837   1.486       .  S
C1626      C1994   1.490       .  S
C1627      C2781   1.488       .  S
C1628      C2053   1.480       .  S
O1629     Cu1637   2.005       .  S
O1629      C1639   1.277       .  A
O1630     Cu1637   2.005       .  S
O1630      C1640   1.279       .  A
O1631     Cu1637   2.007       .  S
O1631      C1641   1.276   1_565  A
O1632     Cu1637   2.001       .  S
O1632      C1642   1.277       .  A
O1633     Cu1638   2.024       .  S
O1633      C1642   1.279       .  A
O1634     Cu1638   2.029       .  S
O1634      C1641   1.282   1_565  A
O1635     Cu1638   2.017       .  S
O1635      C1640   1.277       .  A
O1636     Cu1638   2.006       .  S
O1636      C1639   1.278       .  A
Cu1637    Cu1638   2.367       .  S
C1639      C2949   1.487       .  S
C1640      C2333   1.481   1_565  S
C1641      C2893   1.492       .  S
C1642      C2389   1.488       .  S
O1643     Cu1651   1.989   1_554  S
O1643      C1653   1.276       .  A
O1644     Cu1651   1.998       .  S
O1644      C1654   1.276       .  A
O1645     Cu1651   2.003       .  S
O1645      C1655   1.280       .  A
O1646     Cu1651   2.016   1_554  S
O1646      C1656   1.277       .  A
O1647     Cu1652   2.026   1_554  S
O1647      C1656   1.281       .  A
O1648     Cu1652   2.026       .  S
O1648      C1655   1.278       .  A
O1649     Cu1652   2.029       .  S
O1649      C1654   1.281       .  A
O1650     Cu1652   2.033       .  S
O1650      C1653   1.280   1_556  A
Cu1651    Cu1652   2.370       .  S
C1653      C1885   1.480       .  S
C1654      C2501   1.484       .  S
C1655      C1941   1.489       .  S
C1656      C2442   1.486       .  S
C1657      C1658   1.395       .  A
C1657      C1662   1.396       .  A
C1657      H1664   1.085       .  S
C1658      C1659   1.405       .  A
C1659      C1660   1.405       .  A
C1659      N1666   1.429       .  S
C1660      C1661   1.409       .  A
C1660      H1665   1.084       .  S
C1661      C1662   1.419       .  A
C1662      N1663   1.429       .  S
N1663      O1667   1.262       .  A
N1663      O1668   1.262       .  A
N1666      O1670   1.262       .  A
N1666      O1669   1.262       .  A
C1671      C1672   1.404       .  A
C1671      C1676   1.393       .  A
C1671      H1678   1.088       .  S
C1672      C1673   1.417       .  A
C1673      C1674   1.408       .  A
C1673      N1680   1.429       .  S
C1674      C1675   1.402       .  A
C1674      H1679   1.088       .  S
C1675      C1676   1.406       .  A
C1676      N1677   1.429       .  S
N1677      O1681   1.262       .  A
N1677      O1682   1.262       .  A
N1680      O1684   1.262       .  A
N1680      O1683   1.262       .  A
C1685      C1686   1.399       .  A
C1685      C1690   1.401       .  A
C1685      H1692   1.088       .  S
C1686      C1687   1.411       .  A
C1687      C1688   1.401       .  A
C1687      N1694   1.428       .  S
C1688      C1689   1.402       .  A
C1688      H1693   1.088       .  S
C1689      C1690   1.413       .  A
C1690      N1691   1.427       .  S
N1691      O1695   1.262       .  A
N1691      O1696   1.261       .  A
N1694      O1698   1.262       .  A
N1694      O1697   1.262       .  A
C1699      C1700   1.402       .  A
C1699      C1704   1.398       .  A
C1699      H1706   1.088       .  S
C1700      C1701   1.413       .  A
C1701      C1702   1.405       .  A
C1701      N1708   1.429       .  S
C1702      C1703   1.404       .  A
C1702      H1707   1.088       .  S
C1703      C1704   1.410       .  A
C1704      N1705   1.428       .  S
N1705      O1709   1.262       .  A
N1705      O1710   1.262       .  A
N1708      O1712   1.262       .  A
N1708      O1711   1.262       .  A
C1713      C1714   1.401       .  A
C1713      C1718   1.404       .  A
C1713      H1720   1.087       .  S
C1714      C1715   1.410       .  A
C1715      C1716   1.403       .  A
C1715      N1722   1.430       .  S
C1716      C1717   1.407       .  A
C1716      H1721   1.087       .  S
C1717      C1718   1.414       .  A
C1718      N1719   1.427       .  S
N1719      O1723   1.262       .  A
N1719      O1724   1.262       .  A
N1722      O1726   1.262       .  A
N1722      O1725   1.262       .  A
C1727      C1728   1.402       .  A
C1727      C1732   1.404       .  A
C1727      H1734   1.087       .  S
C1728      C1729   1.410       .  A
C1729      C1730   1.401       .  A
C1729      N1736   1.428       .  S
C1730      C1731   1.402       .  A
C1730      H1735   1.087       .  S
C1731      C1732   1.416       .  A
C1732      N1733   1.429       .  S
N1733      O1737   1.262       .  A
N1733      O1738   1.262       .  A
N1736      O1740   1.262       .  A
N1736      O1739   1.262       .  A
C1741      C1742   1.403       .  A
C1741      C1746   1.405       .  A
C1741      H1748   1.088       .  S
C1742      C1743   1.408       .  A
C1743      C1744   1.400       .  A
C1743      N1750   1.428       .  S
C1744      C1745   1.405       .  A
C1744      H1749   1.088       .  S
C1745      C1746   1.414       .  A
C1746      N1747   1.428       .  S
N1747      O1751   1.262       .  A
N1747      O1752   1.262       .  A
N1750      O1754   1.262       .  A
N1750      O1753   1.262       .  A
C1755      C1756   1.401       .  A
C1755      C1760   1.407       .  A
C1755      H1762   1.087       .  S
C1756      C1757   1.410       .  A
C1757      C1758   1.398       .  A
C1757      N1764   1.429       .  S
C1758      C1759   1.405       .  A
C1758      H1763   1.087       .  S
C1759      C1760   1.419       .  A
C1760      N1761   1.428       .  S
N1761      O1765   1.262       .  A
N1761      O1766   1.262       .  A
N1764      O1768   1.262       .  A
N1764      O1767   1.262       .  A
C1769      C1770   1.406       .  A
C1769      C1774   1.410       .  A
C1769      H1776   1.088       .  S
C1770      C1771   1.407       .  A
C1771      C1772   1.391       .  A
C1771      N1778   1.429       .  S
C1772      C1773   1.402       .  A
C1772      H1777   1.089       .  S
C1773      C1774   1.415       .  A
C1774      N1775   1.429       .  S
N1775      O1779   1.262       .  A
N1775      O1780   1.262       .  A
N1778      O1782   1.262       .  A
N1778      O1781   1.261       .  A
C1783      C1784   1.409       .  A
C1783      C1788   1.409       .  A
C1783      H1790   1.076       .  S
C1784      C1785   1.418       .  A
C1785      C1786   1.401       .  A
C1785      N1792   1.429       .  S
C1786      C1787   1.397       .  A
C1786      H1791   1.076       .  S
C1787      C1788   1.408       .  A
C1788      N1789   1.429       .  S
N1789      O1793   1.262       .  A
N1789      O1794   1.262       .  A
N1792      O1796   1.261       .  A
N1792      O1795   1.262       .  A
C1797      C1798   1.396       .  A
C1797      C1802   1.396       .  A
C1797      H1804   1.084       .  S
C1798      C1799   1.408       .  A
C1799      C1800   1.409       .  A
C1799      N1806   1.429       .  S
C1800      C1801   1.411       .  A
C1800      H1805   1.083       .  S
C1801      C1802   1.414       .  A
C1802      N1803   1.427       .  S
N1803      O1807   1.260       .  A
N1803      O1808   1.262       .  A
N1806      O1810   1.262       .  A
N1806      O1809   1.262       .  A
C1811      C1812   1.404       .  A
C1811      C1816   1.409       .  A
C1811      H1818   1.088       .  S
C1812      C1813   1.409       .  A
C1813      C1814   1.393       .  A
C1813      N1820   1.429       .  S
C1814      C1815   1.404       .  A
C1814      H1819   1.088       .  S
C1815      C1816   1.420       .  A
C1816      N1817   1.429       .  S
N1817      O1821   1.262       .  A
N1817      O1822   1.262       .  A
N1820      O1824   1.262       .  A
N1820      O1823   1.262       .  A
C1825      C1826   1.395       .  A
C1825      C1830   1.394       .  A
C1825      H1832   1.084       .  S
C1826      C1827   1.409       .  A
C1827      C1828   1.406       .  A
C1827      N1834   1.428       .  S
C1828      C1829   1.407       .  A
C1828      H1833   1.083       .  S
C1829      C1830   1.413       .  A
C1830      N1831   1.427       .  S
N1831      O1835   1.261       .  A
N1831      O1836   1.262       .  A
N1834      O1838   1.262       .  A
N1834      O1837   1.262       .  A
C1839      C1840   1.401       .  A
C1839      C1844   1.405       .  A
C1839      H1846   1.089       .  S
C1840      C1841   1.406       .  A
C1841      C1842   1.399       .  A
C1841      N1848   1.429       .  S
C1842      C1843   1.408       .  A
C1842      H1847   1.088       .  S
C1843      C1844   1.419       .  A
C1844      N1845   1.428       .  S
N1845      O1849   1.262       .  A
N1845      O1850   1.262       .  A
N1848      O1852   1.262       .  A
N1848      O1851   1.262       .  A
C1853      C1854   1.400       .  A
C1853      C1858   1.396       .  A
C1853      H1860   1.088       .  S
C1854      C1855   1.410       .  A
C1855      C1856   1.405       .  A
C1855      N1862   1.428       .  S
C1856      C1857   1.408       .  A
C1856      H1861   1.087       .  S
C1857      C1858   1.416       .  A
C1858      N1859   1.429       .  S
N1859      O1863   1.262       .  A
N1859      O1864   1.262       .  A
N1862      O1866   1.262       .  A
N1862      O1865   1.262       .  A
C1867      C1868   1.401       .  A
C1867      C1872   1.398       .  A
C1867      H1874   1.088       .  S
C1868      C1869   1.409       .  A
C1869      C1870   1.402       .  A
C1869      N1876   1.428       .  S
C1870      C1871   1.408       .  A
C1870      H1875   1.087       .  S
C1871      C1872   1.417       .  A
C1872      N1873   1.429       .  S
N1873      O1877   1.262       .  A
N1873      O1878   1.262       .  A
N1876      O1880   1.262       .  A
N1876      O1879   1.262       .  A
C1881      C1882   1.404       .  A
C1881      C1886   1.402       .  A
C1881      H1888   1.087       .  S
C1882      C1883   1.410       .  A
C1883      C1884   1.399       .  A
C1883      N1890   1.428       .  S
C1884      C1885   1.404       .  A
C1884      H1889   1.087       .  S
C1885      C1886   1.410       .  A
C1886      N1887   1.428       .  S
N1887      O1891   1.262       .  A
N1887      O1892   1.261   1_554  A
N1890      O1894   1.262       .  A
N1890      O1893   1.262       .  A
C1895      C1896   1.403       .  A
C1895      C1900   1.402       .  A
C1895      H1902   1.087       .  S
C1896      C1897   1.411       .  A
C1897      C1898   1.400       .  A
C1897      N1904   1.429       .  S
C1898      C1899   1.402       .  A
C1898      H1903   1.087       .  S
C1899      C1900   1.412       .  A
C1900      N1901   1.428       .  S
N1901      O1905   1.262       .  A
N1901      O1906   1.262       .  A
N1904      O1908   1.262       .  A
N1904      O1907   1.262       .  A
C1909      C1910   1.397       .  A
C1909      C1914   1.400       .  A
C1909      H1916   1.084       .  S
C1910      C1911   1.404       .  A
C1911      C1912   1.407       .  A
C1911      N1918   1.429       .  S
C1912      C1913   1.412       .  A
C1912      H1917   1.083       .  S
C1913      C1914   1.421       .  A
C1914      N1915   1.429       .  S
N1915      O1919   1.262       .  A
N1915      O1920   1.262       .  A
N1918      O1922   1.262       .  A
N1918      O1921   1.262       .  A
C1923      C1924   1.399       .  A
C1923      C1928   1.401       .  A
C1923      H1930   1.084       .  S
C1924      C1925   1.405       .  A
C1925      C1926   1.403       .  A
C1925      N1932   1.429       .  S
C1926      C1927   1.409       .  A
C1926      H1931   1.083       .  S
C1927      C1928   1.416       .  A
C1928      N1929   1.429       .  S
N1929      O1933   1.262       .  A
N1929      O1934   1.262       .  A
N1932      O1936   1.262       .  A
N1932      O1935   1.262       .  A
C1937      C1938   1.404       .  A
C1937      C1942   1.408       .  A
C1937      H1944   1.088       .  S
C1938      C1939   1.410       .  A
C1939      C1940   1.393       .  A
C1939      N1946   1.430       .  S
C1940      C1941   1.403       .  A
C1940      H1945   1.088       .  S
C1941      C1942   1.417       .  A
C1942      N1943   1.428       .  S
N1943      O1947   1.261       .  A
N1943      O1948   1.262       .  A
N1946      O1950   1.262       .  A
N1946      O1949   1.262       .  A
C1951      C1952   1.404       .  A
C1951      C1956   1.396       .  A
C1951      H1958   1.087       .  S
C1952      C1953   1.412       .  A
C1953      C1954   1.404       .  A
C1953      N1960   1.428       .  S
C1954      C1955   1.407       .  A
C1954      H1959   1.087       .  S
C1955      C1956   1.415       .  A
C1956      N1957   1.430       .  S
N1957      O1961   1.262       .  A
N1957      O1962   1.262       .  A
N1960      O1964   1.262       .  A
N1960      O1963   1.262       .  A
C1965      C1966   1.400       .  A
C1965      C1970   1.395       .  A
C1965      H1972   1.087       .  S
C1966      C1967   1.411       .  A
C1967      C1968   1.404       .  A
C1967      N1974   1.428       .  S
C1968      C1969   1.407       .  A
C1968      H1973   1.087       .  S
C1969      C1970   1.416       .  A
C1970      N1971   1.429       .  S
N1971      O1975   1.262       .  A
N1971      O1976   1.262       .  A
N1974      O1978   1.262       .  A
N1974      O1977   1.262       .  A
C1979      C1980   1.399       .  A
C1979      C1984   1.398       .  A
C1979      H1986   1.088       .  S
C1980      C1981   1.408       .  A
C1981      C1982   1.400       .  A
C1981      N1988   1.428       .  S
C1982      C1983   1.408       .  A
C1982      H1987   1.087       .  S
C1983      C1984   1.417       .  A
C1984      N1985   1.429       .  S
N1985      O1989   1.262       .  A
N1985      O1990   1.262       .  A
N1988      O1992   1.262       .  A
N1988      O1991   1.262       .  A
C1993      C1994   1.406       .  A
C1993      C1998   1.397       .  A
C1993      H2000   1.088       .  S
C1994      C1995   1.415       .  A
C1995      C1996   1.408       .  A
C1995      N2002   1.428       .  S
C1996      C1997   1.404       .  A
C1996      H2001   1.088       .  S
C1997      C1998   1.408       .  A
C1998      N1999   1.429       .  S
N1999      O2003   1.262       .  A
N1999      O2004   1.262       .  A
N2002      O2006   1.262       .  A
N2002      O2005   1.262       .  A
C2007      C2008   1.406       .  A
C2007      C2012   1.411       .  A
C2007      H2014   1.088       .  S
C2008      C2009   1.409       .  A
C2009      C2010   1.394       .  A
C2009      N2016   1.429       .  S
C2010      C2011   1.405       .  A
C2010      H2015   1.088       .  S
C2011      C2012   1.416       .  A
C2012      N2013   1.427       .  S
N2013      O2017   1.261       .  A
N2013      O2018   1.262       .  A
N2016      O2020   1.262       .  A
N2016      O2019   1.262       .  A
C2021      C2022   1.398       .  A
C2021      C2026   1.402       .  A
C2021      H2028   1.083       .  S
C2022      C2023   1.406       .  A
C2023      C2024   1.405       .  A
C2023      N2030   1.429       .  S
C2024      C2025   1.410       .  A
C2024      H2029   1.082       .  S
C2025      C2026   1.418       .  A
C2026      N2027   1.428       .  S
N2027      O2031   1.262       .  A
N2027      O2032   1.262       .  A
N2030      O2034   1.262       .  A
N2030      O2033   1.262       .  A
C2035      C2036   1.400       .  A
C2035      C2040   1.401       .  A
C2035      H2042   1.084       .  S
C2036      C2037   1.406       .  A
C2037      C2038   1.404       .  A
C2037      N2044   1.429       .  S
C2038      C2039   1.410       .  A
C2038      H2043   1.083       .  S
C2039      C2040   1.413       .  A
C2040      N2041   1.427       .  S
N2041      O2045   1.262       .  A
N2041      O2046   1.261       .  A
N2044      O2048   1.262       .  A
N2044      O2047   1.262       .  A
C2049      C2050   1.398       .  A
C2049      C2054   1.398       .  A
C2049      H2056   1.088       .  S
C2050      C2051   1.409       .  A
C2051      C2052   1.402       .  A
C2051      N2058   1.428       .  S
C2052      C2053   1.404       .  A
C2052      H2057   1.088       .  S
C2053      C2054   1.415       .  A
C2054      N2055   1.429       .  S
N2055      O2059   1.262       .  A
N2055      O2060   1.262       .  A
N2058      O2062   1.261       .  A
N2058      O2061   1.262       .  A
C2063      C2064   1.401       .  A
C2063      C2068   1.396       .  A
C2063      H2070   1.088       .  S
C2064      C2065   1.409       .  A
C2065      C2066   1.402       .  A
C2065      N2072   1.428       .  S
C2066      C2067   1.406       .  A
C2066      H2071   1.088       .  S
C2067      C2068   1.413       .  A
C2068      N2069   1.429       .  S
N2069      O2073   1.262       .  A
N2069      O2074   1.262       .  A
N2072      O2076   1.262       .  A
N2072      O2075   1.262       .  A
C2077      C2078   1.406       .  A
C2077      C2082   1.410       .  A
C2077      H2084   1.088       .  S
C2078      C2079   1.412       .  A
C2079      C2080   1.396       .  A
C2079      N2086   1.430       .  S
C2080      C2081   1.407       .  A
C2080      H2085   1.088       .  S
C2081      C2082   1.416       .  A
C2082      N2083   1.427       .  S
N2083      O2087   1.262       .  A
N2083      O2088   1.262       .  A
N2086      O2090   1.262       .  A
N2086      O2089   1.262       .  A
C2091      C2092   1.405       .  A
C2091      C2096   1.409       .  A
C2091      H2098   1.088       .  S
C2092      C2093   1.407       .  A
C2093      C2094   1.394       .  A
C2093      N2100   1.428       .  S
C2094      C2095   1.402       .  A
C2094      H2099   1.088       .  S
C2095      C2096   1.414       .  A
C2096      N2097   1.429       .  S
N2097      O2101   1.262       .  A
N2097      O2102   1.262       .  A
N2100      O2104   1.262       .  A
N2100      O2103   1.262       .  A
C2105      C2106   1.400       .  A
C2105      C2110   1.397       .  A
C2105      H2112   1.088       .  S
C2106      C2107   1.410       .  A
C2107      C2108   1.403       .  A
C2107      N2114   1.429       .  S
C2108      C2109   1.405       .  A
C2108      H2113   1.087       .  S
C2109      C2110   1.412       .  A
C2110      N2111   1.429       .  S
N2111      O2115   1.262       .  A
N2111      O2116   1.262       .  A
N2114      O2118   1.262       .  A
N2114      O2117   1.262       .  A
C2119      C2120   1.411       .  A
C2119      C2124   1.406       .  A
C2119      H2126   1.083       .  S
C2120      C2121   1.417       .  A
C2121      C2122   1.402       .  A
C2121      N2128   1.428       .  S
C2122      C2123   1.398       .  A
C2122      H2127   1.084       .  S
C2123      C2124   1.407       .  A
C2124      N2125   1.429       .  S
N2125      O2129   1.262       .  A
N2125      O2130   1.262       .  A
N2128      O2132   1.262       .  A
N2128      O2131   1.262       .  A
C2133      C2134   1.404       .  A
C2133      C2138   1.391       .  A
C2133      H2140   1.088       .  S
C2134      C2135   1.417       .  A
C2135      C2136   1.408       .  A
C2135      N2142   1.429       .  S
C2136      C2137   1.404       .  A
C2136      H2141   1.088       .  S
C2137      C2138   1.407       .  A
C2138      N2139   1.429       .  S
N2139      O2143   1.261       .  A
N2139      O2144   1.262       .  A
N2142      O2146   1.262   1_554  A
N2142      O2145   1.262       .  A
C2147      C2148   1.396       .  A
C2147      C2152   1.393       .  A
C2147      H2154   1.085       .  S
C2148      C2149   1.410       .  A
C2149      C2150   1.413       .  A
C2149      N2156   1.429       .  S
C2150      C2151   1.412       .  A
C2150      H2155   1.083       .  S
C2151      C2152   1.420       .  A
C2152      N2153   1.429       .  S
N2153      O2157   1.262       .  A
N2153      O2158   1.262       .  A
N2156      O2160   1.262       .  A
N2156      O2159   1.262       .  A
C2161      C2162   1.405       .  A
C2161      C2166   1.409       .  A
C2161      H2168   1.088       .  S
C2162      C2163   1.406       .  A
C2163      C2164   1.393       .  A
C2163      N2170   1.428       .  S
C2164      C2165   1.402       .  A
C2164      H2169   1.089       .  S
C2165      C2166   1.414       .  A
C2166      N2167   1.429       .  S
N2167      O2171   1.262       .  A
N2167      O2172   1.262       .  A
N2170      O2174   1.262       .  A
N2170      O2173   1.261       .  A
C2175      C2176   1.402       .  A
C2175      C2180   1.401       .  A
C2175      H2182   1.088       .  S
C2176      C2177   1.409       .  A
C2177      C2178   1.405       .  A
C2177      N2184   1.428       .  S
C2178      C2179   1.409       .  A
C2178      H2183   1.087       .  S
C2179      C2180   1.418       .  A
C2180      N2181   1.429       .  S
N2181      O2185   1.262       .  A
N2181      O2186   1.262       .  A
N2184      O2188   1.262       .  A
N2184      O2187   1.262       .  A
C2189      C2190   1.404       .  A
C2189      C2194   1.405       .  A
C2189      H2196   1.088       .  S
C2190      C2191   1.406       .  A
C2191      C2192   1.393       .  A
C2191      N2198   1.429       .  S
C2192      C2193   1.405       .  A
C2192      H2197   1.088       .  S
C2193      C2194   1.415       .  A
C2194      N2195   1.428       .  S
N2195      O2199   1.262       .  A
N2195      O2200   1.262       .  A
N2198      O2202   1.262       .  A
N2198      O2201   1.262       .  A
C2203      C2204   1.405       .  A
C2203      C2208   1.408       .  A
C2203      H2210   1.088       .  S
C2204      C2205   1.405       .  A
C2205      C2206   1.392       .  A
C2205      N2212   1.429       .  S
C2206      C2207   1.408       .  A
C2206      H2211   1.088       .  S
C2207      C2208   1.416       .  A
C2208      N2209   1.428       .  S
N2209      O2213   1.262       .  A
N2209      O2214   1.262       .  A
N2212      O2216   1.262       .  A
N2212      O2215   1.262       .  A
C2217      C2218   1.405       .  A
C2217      C2222   1.393       .  A
C2217      H2224   1.088       .  S
C2218      C2219   1.417       .  A
C2219      C2220   1.407       .  A
C2219      N2226   1.428       .  S
C2220      C2221   1.404       .  A
C2220      H2225   1.088       .  S
C2221      C2222   1.410       .  A
C2222      N2223   1.430       .  S
N2223      O2227   1.262       .  A
N2223      O2228   1.262       .  A
N2226      O2230   1.262   1_554  A
N2226      O2229   1.262       .  A
C2231      C2232   1.405       .  A
C2231      C2236   1.406       .  A
C2231      H2238   1.087       .  S
C2232      C2233   1.414       .  A
C2233      C2234   1.396       .  A
C2233      N2240   1.429       .  S
C2234      C2235   1.399       .  A
C2234      H2239   1.088       .  S
C2235      C2236   1.411       .  A
C2236      N2237   1.428       .  S
N2237      O2241   1.262       .  A
N2237      O2242   1.262       .  A
N2240      O2244   1.262       .  A
N2240      O2243   1.262       .  A
C2245      C2246   1.400       .  A
C2245      C2250   1.401       .  A
C2245      H2252   1.088   1_554  S
C2246      C2247   1.411       .  A
C2247      C2248   1.402       .  A
C2247      N2254   1.429       .  S
C2248      C2249   1.404       .  A
C2248      H2253   1.088       .  S
C2249      C2250   1.414       .  A
C2250      N2251   1.429       .  S
N2251      O2255   1.262       .  A
N2251      O2256   1.262   1_554  A
N2254      O2258   1.262       .  A
N2254      O2257   1.262       .  A
C2259      C2260   1.401       .  A
C2259      C2264   1.405       .  A
C2259      H2266   1.084       .  S
C2260      C2261   1.407       .  A
C2261      C2262   1.403       .  A
C2261      N2268   1.429       .  S
C2262      C2263   1.409       .  A
C2262      H2267   1.083       .  S
C2263      C2264   1.418       .  A
C2264      N2265   1.429       .  S
N2265      O2269   1.262       .  A
N2265      O2270   1.262       .  A
N2268      O2272   1.262       .  A
N2268      O2271   1.262       .  A
C2273      C2274   1.404       .  A
C2273      C2278   1.407       .  A
C2273      H2280   1.088       .  S
C2274      C2275   1.410       .  A
C2275      C2276   1.397       .  A
C2275      N2282   1.430       .  S
C2276      C2277   1.407       .  A
C2276      H2281   1.088       .  S
C2277      C2278   1.418       .  A
C2278      N2279   1.428       .  S
N2279      O2283   1.262       .  A
N2279      O2284   1.262       .  A
N2282      O2286   1.262       .  A
N2282      O2285   1.262       .  A
C2287      C2288   1.401       .  A
C2287      C2292   1.396       .  A
C2287      H2294   1.088       .  S
C2288      C2289   1.411       .  A
C2289      C2290   1.407       .  A
C2289      N2296   1.428       .  S
C2290      C2291   1.407       .  A
C2290      H2295   1.087       .  S
C2291      C2292   1.415       .  A
C2292      N2293   1.429       .  S
N2293      O2297   1.262       .  A
N2293      O2298   1.262       .  A
N2296      O2300   1.262       .  A
N2296      O2299   1.262       .  A
C2301      C2302   1.402       .  A
C2301      C2306   1.401       .  A
C2301      H2308   1.088       .  S
C2302      C2303   1.406       .  A
C2303      C2304   1.398       .  A
C2303      N2310   1.428       .  S
C2304      C2305   1.404       .  A
C2304      H2309   1.088       .  S
C2305      C2306   1.414       .  A
C2306      N2307   1.429       .  S
N2307      O2311   1.262       .  A
N2307      O2312   1.262       .  A
N2310      O2314   1.262       .  A
N2310      O2313   1.262       .  A
C2315      C2316   1.399       .  A
C2315      C2320   1.400       .  A
C2315      H2322   1.084       .  S
C2316      C2317   1.408       .  A
C2317      C2318   1.404       .  A
C2317      N2324   1.429       .  S
C2318      C2319   1.409       .  A
C2318      H2323   1.083       .  S
C2319      C2320   1.415       .  A
C2320      N2321   1.428       .  S
N2321      O2325   1.262       .  A
N2321      O2326   1.262       .  A
N2324      O2328   1.262       .  A
N2324      O2327   1.262       .  A
C2329      C2330   1.402       .  A
C2329      C2334   1.401       .  A
C2329      H2336   1.087       .  S
C2330      C2331   1.409       .  A
C2331      C2332   1.398       .  A
C2331      N2338   1.428       .  S
C2332      C2333   1.404       .  A
C2332      H2337   1.087       .  S
C2333      C2334   1.413       .  A
C2334      N2335   1.429   1_545  S
N2335      O2339   1.262   1_565  A
N2335      O2340   1.262       .  A
N2338      O2342   1.262       .  A
N2338      O2341   1.262       .  A
C2343      C2344   1.399       .  A
C2343      C2348   1.404       .  A
C2343      H2350   1.087       .  S
C2344      C2345   1.406       .  A
C2345      C2346   1.396       .  A
C2345      N2352   1.429       .  S
C2346      C2347   1.406       .  A
C2346      H2351   1.086       .  S
C2347      C2348   1.419       .  A
C2348      N2349   1.429       .  S
N2349      O2353   1.262       .  A
N2349      O2354   1.262       .  A
N2352      O2356   1.262       .  A
N2352      O2355   1.262       .  A
C2357      C2358   1.403       .  A
C2357      C2362   1.407       .  A
C2357      H2364   1.088       .  S
C2358      C2359   1.410       .  A
C2359      C2360   1.397       .  A
C2359      N2366   1.429       .  S
C2360      C2361   1.405       .  A
C2360      H2365   1.088       .  S
C2361      C2362   1.418       .  A
C2362      N2363   1.428       .  S
N2363      O2367   1.262       .  A
N2363      O2368   1.262       .  A
N2366      O2370   1.262       .  A
N2366      O2369   1.262       .  A
C2371      C2372   1.399       .  A
C2371      C2376   1.403       .  A
C2371      H2378   1.084       .  S
C2372      C2373   1.408       .  A
C2373      C2374   1.407       .  A
C2373      N2380   1.429       .  S
C2374      C2375   1.409       .  A
C2374      H2379   1.083       .  S
C2375      C2376   1.417       .  A
C2376      N2377   1.429       .  S
N2377      O2381   1.262       .  A
N2377      O2382   1.262       .  A
N2380      O2384   1.262       .  A
N2380      O2383   1.262       .  A
C2385      C2386   1.401       .  A
C2385      C2390   1.391       .  A
C2385      H2392   1.087       .  S
C2386      C2387   1.414       .  A
C2387      C2388   1.408       .  A
C2387      N2394   1.428       .  S
C2388      C2389   1.408       .  A
C2388      H2393   1.087       .  S
C2389      C2390   1.414       .  A
C2390      N2391   1.428       .  S
N2391      O2395   1.261       .  A
N2391      O2396   1.262       .  A
N2394      O2398   1.262       .  A
N2394      O2397   1.262       .  A
C2399      C2400   1.400       .  A
C2399      C2404   1.405       .  A
C2399      H2406   1.083       .  S
C2400      C2401   1.404       .  A
C2401      C2402   1.399       .  A
C2401      N2408   1.430       .  S
C2402      C2403   1.408       .  A
C2402      H2407   1.083       .  S
C2403      C2404   1.416       .  A
C2404      N2405   1.428       .  S
N2405      O2409   1.261       .  A
N2405      O2410   1.261       .  A
N2408      O2412   1.262       .  A
N2408      O2411   1.261       .  A
C2413      C2414   1.407       .  A
C2413      C2418   1.397       .  A
C2413      H2420   1.088       .  S
C2414      C2415   1.417       .  A
C2415      C2416   1.411       .  A
C2415      N2422   1.427       .  S
C2416      C2417   1.405       .  A
C2416      H2421   1.088       .  S
C2417      C2418   1.410       .  A
C2418      N2419   1.430       .  S
N2419      O2423   1.262       .  A
N2419      O2424   1.262       .  A
N2422      O2426   1.262       .  A
N2422      O2425   1.262       .  A
C2427      C2428   1.401       .  A
C2427      C2432   1.404       .  A
C2427      H2434   1.084       .  S
C2428      C2429   1.406       .  A
C2429      C2430   1.406       .  A
C2429      N2436   1.429       .  S
C2430      C2431   1.409       .  A
C2430      H2435   1.083       .  S
C2431      C2432   1.411       .  A
C2432      N2433   1.425       .  S
N2433      O2437   1.262       .  A
N2433      O2438   1.261       .  A
N2436      O2440   1.262       .  A
N2436      O2439   1.262       .  A
C2441      C2442   1.402       .  A
C2441      C2446   1.400       .  A
C2441      H2448   1.088       .  S
C2442      C2443   1.415       .  A
C2443      C2444   1.407       .  A
C2443      N2450   1.429       .  S
C2444      C2445   1.403       .  A
C2444      H2449   1.088       .  S
C2445      C2446   1.411       .  A
C2446      N2447   1.428       .  S
N2447      O2451   1.262       .  A
N2447      O2452   1.262       .  A
N2450      O2454   1.262       .  A
N2450      O2453   1.262       .  A
C2455      C2456   1.405       .  A
C2455      C2460   1.404       .  A
C2455      H2462   1.088       .  S
C2456      C2457   1.411       .  A
C2457      C2458   1.403       .  A
C2457      N2464   1.428       .  S
C2458      C2459   1.405       .  A
C2458      H2463   1.087       .  S
C2459      C2460   1.413       .  A
C2460      N2461   1.429       .  S
N2461      O2465   1.262       .  A
N2461      O2466   1.262       .  A
N2464      O2468   1.262       .  A
N2464      O2467   1.262       .  A
C2469      C2470   1.395       .  A
C2469      C2474   1.393       .  A
C2469      H2476   1.088       .  S
C2470      C2471   1.409       .  A
C2471      C2472   1.406       .  A
C2471      N2478   1.428       .  S
C2472      C2473   1.409       .  A
C2472      H2477   1.087       .  S
C2473      C2474   1.420       .  A
C2474      N2475   1.429       .  S
N2475      O2479   1.262       .  A
N2475      O2480   1.262       .  A
N2478      O2482   1.262       .  A
N2478      O2481   1.262       .  A
C2483      C2484   1.407       .  A
C2483      C2488   1.404       .  A
C2483      H2490   1.087       .  S
C2484      C2485   1.416       .  A
C2485      C2486   1.392       .  A
C2485      N2492   1.430       .  S
C2486      C2487   1.400       .  A
C2486      H2491   1.087       .  S
C2487      C2488   1.409       .  A
C2488      N2489   1.428       .  S
N2489      O2493   1.262       .  A
N2489      O2494   1.262       .  A
N2492      O2496   1.262       .  A
N2492      O2495   1.262       .  A
C2497      C2498   1.400       .  A
C2497      C2502   1.397       .  A
C2497      H2504   1.087       .  S
C2498      C2499   1.410       .  A
C2499      C2500   1.405       .  A
C2499      N2506   1.428       .  S
C2500      C2501   1.406       .  A
C2500      H2505   1.087       .  S
C2501      C2502   1.414       .  A
C2502      N2503   1.430       .  S
N2503      O2507   1.262       .  A
N2503      O2508   1.262       .  A
N2506      O2510   1.262       .  A
N2506      O2509   1.262       .  A
C2511      C2512   1.405       .  A
C2511      C2516   1.411       .  A
C2511      H2518   1.088       .  S
C2512      C2513   1.405       .  A
C2513      C2514   1.394       .  A
C2513      N2520   1.429       .  S
C2514      C2515   1.408       .  A
C2514      H2519   1.087       .  S
C2515      C2516   1.418       .  A
C2516      N2517   1.428       .  S
N2517      O2521   1.262       .  A
N2517      O2522   1.262       .  A
N2520      O2524   1.262       .  A
N2520      O2523   1.262       .  A
C2525      C2526   1.403       .  A
C2525      C2530   1.399       .  A
C2525      H2532   1.088       .  S
C2526      C2527   1.410       .  A
C2527      C2528   1.403       .  A
C2527      N2534   1.428       .  S
C2528      C2529   1.409       .  A
C2528      H2533   1.087       .  S
C2529      C2530   1.416       .  A
C2530      N2531   1.429       .  S
N2531      O2535   1.262       .  A
N2531      O2536   1.262       .  A
N2534      O2538   1.262       .  A
N2534      O2537   1.262       .  A
C2539      C2540   1.398       .  A
C2539      C2544   1.395       .  A
C2539      H2546   1.088       .  S
C2540      C2541   1.410       .  A
C2541      C2542   1.407       .  A
C2541      N2548   1.428       .  S
C2542      C2543   1.410       .  A
C2542      H2547   1.087       .  S
C2543      C2544   1.417       .  A
C2544      N2545   1.429       .  S
N2545      O2549   1.262       .  A
N2545      O2550   1.262       .  A
N2548      O2552   1.262       .  A
N2548      O2551   1.262       .  A
C2553      C2554   1.410       .  A
C2553      C2558   1.405       .  A
C2553      H2560   1.087       .  S
C2554      C2555   1.413       .  A
C2555      C2556   1.400       .  A
C2555      N2562   1.429       .  S
C2556      C2557   1.406       .  A
C2556      H2561   1.087       .  S
C2557      C2558   1.411       .  A
C2558      N2559   1.428       .  S
N2559      O2563   1.262       .  A
N2559      O2564   1.262       .  A
N2562      O2566   1.262       .  A
N2562      O2565   1.262       .  A
C2567      C2568   1.404       .  A
C2567      C2572   1.399       .  A
C2567      H2574   1.088       .  S
C2568      C2569   1.411       .  A
C2569      C2570   1.405       .  A
C2569      N2576   1.428       .  S
C2570      C2571   1.409       .  A
C2570      H2575   1.087       .  S
C2571      C2572   1.415       .  A
C2572      N2573   1.429       .  S
N2573      O2577   1.261       .  A
N2573      O2578   1.262       .  A
N2576      O2580   1.262       .  A
N2576      O2579   1.262       .  A
C2581      C2582   1.405       .  A
C2581      C2586   1.399       .  A
C2581      H2588   1.088       .  S
C2582      C2583   1.415       .  A
C2583      C2584   1.405       .  A
C2583      N2590   1.428       .  S
C2584      C2585   1.403       .  A
C2584      H2589   1.088       .  S
C2585      C2586   1.410       .  A
C2586      N2587   1.429       .  S
N2587      O2591   1.262       .  A
N2587      O2592   1.262       .  A
N2590      O2594   1.262       .  A
N2590      O2593   1.262       .  A
C2595      C2596   1.400       .  A
C2595      C2600   1.400       .  A
C2595      H2602   1.088       .  S
C2596      C2597   1.410       .  A
C2597      C2598   1.407       .  A
C2597      N2604   1.428       .  S
C2598      C2599   1.407       .  A
C2598      H2603   1.087       .  S
C2599      C2600   1.417       .  A
C2600      N2601   1.429       .  S
N2601      O2605   1.262       .  A
N2601      O2606   1.262       .  A
N2604      O2608   1.262       .  A
N2604      O2607   1.262       .  A
C2609      C2610   1.397       .  A
C2609      C2614   1.400       .  A
C2609      H2616   1.087       .  S
C2610      C2611   1.409       .  A
C2611      C2612   1.403       .  A
C2611      N2618   1.428       .  S
C2612      C2613   1.404       .  A
C2612      H2617   1.087       .  S
C2613      C2614   1.413       .  A
C2614      N2615   1.427       .  S
N2615      O2619   1.262       .  A
N2615      O2620   1.261       .  A
N2618      O2622   1.261       .  A
N2618      O2621   1.262       .  A
C2623      C2624   1.405       .  A
C2623      C2628   1.408       .  A
C2623      H2630   1.088       .  S
C2624      C2625   1.408       .  A
C2625      C2626   1.395       .  A
C2625      N2632   1.430       .  S
C2626      C2627   1.407       .  A
C2626      H2631   1.088       .  S
C2627      C2628   1.416       .  A
C2628      N2629   1.428       .  S
N2629      O2633   1.262       .  A
N2629      O2634   1.262       .  A
N2632      O2636   1.262       .  A
N2632      O2635   1.262       .  A
C2637      C2638   1.405       .  A
C2637      C2642   1.410       .  A
C2637      H2644   1.088       .  S
C2638      C2639   1.406       .  A
C2639      C2640   1.396       .  A
C2639      N2646   1.429       .  S
C2640      C2641   1.407       .  A
C2640      H2645   1.088       .  S
C2641      C2642   1.416       .  A
C2642      N2643   1.428       .  S
N2643      O2647   1.262       .  A
N2643      O2648   1.262       .  A
N2646      O2650   1.262       .  A
N2646      O2649   1.262       .  A
C2651      C2652   1.404       .  A
C2651      C2656   1.407       .  A
C2651      H2658   1.088       .  S
C2652      C2653   1.410       .  A
C2653      C2654   1.395       .  A
C2653      N2660   1.429       .  S
C2654      C2655   1.406       .  A
C2654      H2659   1.088       .  S
C2655      C2656   1.418       .  A
C2656      N2657   1.428       .  S
N2657      O2661   1.262       .  A
N2657      O2662   1.262       .  A
N2660      O2664   1.262       .  A
N2660      O2663   1.262       .  A
C2665      C2666   1.405       .  A
C2665      C2670   1.406       .  A
C2665      H2672   1.088       .  S
C2666      C2667   1.410       .  A
C2667      C2668   1.397       .  A
C2667      N2674   1.430       .  S
C2668      C2669   1.407       .  A
C2668      H2673   1.088       .  S
C2669      C2670   1.413       .  A
C2670      N2671   1.427       .  S
N2671      O2675   1.261       .  A
N2671      O2676   1.262   1_545  A
N2674      O2678   1.262       .  A
N2674      O2677   1.262       .  A
C2679      C2680   1.401       .  A
C2679      C2684   1.400       .  A
C2679      H2686   1.088       .  S
C2680      C2681   1.410       .  A
C2681      C2682   1.403       .  A
C2681      N2688   1.428       .  S
C2682      C2683   1.407       .  A
C2682      H2687   1.087       .  S
C2683      C2684   1.417       .  A
C2684      N2685   1.429       .  S
N2685      O2689   1.262       .  A
N2685      O2690   1.262       .  A
N2688      O2692   1.262       .  A
N2688      O2691   1.262       .  A
C2693      C2694   1.400       .  A
C2693      C2698   1.399       .  A
C2693      H2700   1.088       .  S
C2694      C2695   1.411       .  A
C2695      C2696   1.406       .  A
C2695      N2702   1.428       .  S
C2696      C2697   1.405       .  A
C2696      H2701   1.087       .  S
C2697      C2698   1.415       .  A
C2698      N2699   1.430       .  S
N2699      O2703   1.262       .  A
N2699      O2704   1.262       .  A
N2702      O2706   1.262       .  A
N2702      O2705   1.262       .  A
C2707      C2708   1.404       .  A
C2707      C2712   1.408       .  A
C2707      H2714   1.087       .  S
C2708      C2709   1.409       .  A
C2709      C2710   1.397       .  A
C2709      N2716   1.429       .  S
C2710      C2711   1.406       .  A
C2710      H2715   1.087       .  S
C2711      C2712   1.418       .  A
C2712      N2713   1.428       .  S
N2713      O2717   1.262       .  A
N2713      O2718   1.262       .  A
N2716      O2720   1.262       .  A
N2716      O2719   1.262       .  A
C2721      C2722   1.400       .  A
C2721      C2726   1.406       .  A
C2721      H2728   1.087       .  S
C2722      C2723   1.406       .  A
C2723      C2724   1.400       .  A
C2723      N2730   1.429       .  S
C2724      C2725   1.409       .  A
C2724      H2729   1.086       .  S
C2725      C2726   1.419       .  A
C2726      N2727   1.428       .  S
N2727      O2731   1.262       .  A
N2727      O2732   1.262       .  A
N2730      O2734   1.262       .  A
N2730      O2733   1.262       .  A
C2735      C2736   1.401       .  A
C2735      C2740   1.401       .  A
C2735      H2742   1.087       .  S
C2736      C2737   1.410       .  A
C2737      C2738   1.403       .  A
C2737      N2744   1.428       .  S
C2738      C2739   1.404       .  A
C2738      H2743   1.087       .  S
C2739      C2740   1.413       .  A
C2740      N2741   1.429       .  S
N2741      O2745   1.262       .  A
N2741      O2746   1.262       .  A
N2744      O2748   1.262       .  A
N2744      O2747   1.262       .  A
C2749      C2750   1.402       .  A
C2749      C2754   1.402       .  A
C2749      H2756   1.087       .  S
C2750      C2751   1.409       .  A
C2751      C2752   1.403       .  A
C2751      N2758   1.428       .  S
C2752      C2753   1.407       .  A
C2752      H2757   1.087       .  S
C2753      C2754   1.414       .  A
C2754      N2755   1.429       .  S
N2755      O2759   1.262       .  A
N2755      O2760   1.262       .  A
N2758      O2762   1.262       .  A
N2758      O2761   1.262       .  A
C2763      C2764   1.403       .  A
C2763      C2768   1.403       .  A
C2763      H2770   1.087       .  S
C2764      C2765   1.412       .  A
C2765      C2766   1.402       .  A
C2765      N2772   1.429       .  S
C2766      C2767   1.402       .  A
C2766      H2771   1.088       .  S
C2767      C2768   1.412       .  A
C2768      N2769   1.428       .  S
N2769      O2773   1.262       .  A
N2769      O2774   1.262       .  A
N2772      O2776   1.262       .  A
N2772      O2775   1.262       .  A
C2777      C2778   1.404       .  A
C2777      C2782   1.409       .  A
C2777      H2784   1.088       .  S
C2778      C2779   1.407       .  A
C2779      C2780   1.393       .  A
C2779      N2786   1.430       .  S
C2780      C2781   1.405       .  A
C2780      H2785   1.088       .  S
C2781      C2782   1.416       .  A
C2782      N2783   1.428       .  S
N2783      O2787   1.262       .  A
N2783      O2788   1.262       .  A
N2786      O2790   1.262       .  A
N2786      O2789   1.262       .  A
C2791      C2792   1.402       .  A
C2791      C2796   1.408       .  A
C2791      H2798   1.083       .  S
C2792      C2793   1.405       .  A
C2793      C2794   1.399       .  A
C2793      N2800   1.430       .  S
C2794      C2795   1.409       .  A
C2794      H2799   1.083       .  S
C2795      C2796   1.418       .  A
C2796      N2797   1.428       .  S
N2797      O2801   1.262       .  A
N2797      O2802   1.262       .  A
N2800      O2804   1.262       .  A
N2800      O2803   1.262       .  A
C2805      C2806   1.397       .  A
C2805      C2810   1.395       .  A
C2805      H2812   1.085       .  S
C2806      C2807   1.408       .  A
C2807      C2808   1.410       .  A
C2807      N2814   1.429       .  S
C2808      C2809   1.413       .  A
C2808      H2813   1.083       .  S
C2809      C2810   1.419       .  A
C2810      N2811   1.429       .  S
N2811      O2815   1.262       .  A
N2811      O2816   1.262       .  A
N2814      O2818   1.262       .  A
N2814      O2817   1.262       .  A
C2819      C2820   1.396       .  A
C2819      C2824   1.396       .  A
C2819      H2826   1.084       .  S
C2820      C2821   1.408       .  A
C2821      C2822   1.409       .  A
C2821      N2828   1.429       .  S
C2822      C2823   1.411       .  A
C2822      H2827   1.083       .  S
C2823      C2824   1.416       .  A
C2824      N2825   1.428       .  S
N2825      O2829   1.261       .  A
N2825      O2830   1.262       .  A
N2828      O2832   1.262       .  A
N2828      O2831   1.262       .  A
C2833      C2834   1.404       .  A
C2833      C2838   1.408       .  A
C2833      H2840   1.088       .  S
C2834      C2835   1.407       .  A
C2835      C2836   1.392       .  A
C2835      N2842   1.430       .  S
C2836      C2837   1.405       .  A
C2836      H2841   1.088       .  S
C2837      C2838   1.415       .  A
C2838      N2839   1.428       .  S
N2839      O2843   1.262       .  A
N2839      O2844   1.262       .  A
N2842      O2846   1.262       .  A
N2842      O2845   1.262       .  A
C2847      C2848   1.399       .  A
C2847      C2852   1.396       .  A
C2847      H2854   1.088       .  S
C2848      C2849   1.410       .  A
C2849      C2850   1.406       .  A
C2849      N2856   1.428       .  S
C2850      C2851   1.409       .  A
C2850      H2855   1.087       .  S
C2851      C2852   1.419       .  A
C2852      N2853   1.429       .  S
N2853      O2857   1.262       .  A
N2853      O2858   1.262       .  A
N2856      O2860   1.262       .  A
N2856      O2859   1.262       .  A
C2861      C2862   1.398       .  A
C2861      C2866   1.395       .  A
C2861      H2868   1.088       .  S
C2862      C2863   1.408       .  A
C2863      C2864   1.404       .  A
C2863      N2870   1.428       .  S
C2864      C2865   1.408       .  A
C2864      H2869   1.087       .  S
C2865      C2866   1.418       .  A
C2866      N2867   1.430       .  S
N2867      O2871   1.262       .  A
N2867      O2872   1.261       .  A
N2870      O2874   1.262       .  A
N2870      O2873   1.262       .  A
C2875      C2876   1.405       .  A
C2875      C2880   1.409       .  A
C2875      H2882   1.088       .  S
C2876      C2877   1.406       .  A
C2877      C2878   1.391       .  A
C2877      N2884   1.430       .  S
C2878      C2879   1.407       .  A
C2878      H2883   1.087       .  S
C2879      C2880   1.417       .  A
C2880      N2881   1.428       .  S
N2881      O2885   1.262       .  A
N2881      O2886   1.262       .  A
N2884      O2888   1.262       .  A
N2884      O2887   1.262       .  A
C2889      C2890   1.402       .  A
C2889      C2894   1.406       .  A
C2889      H2896   1.088       .  S
C2890      C2891   1.410       .  A
C2891      C2892   1.400       .  A
C2891      N2898   1.428       .  S
C2892      C2893   1.404       .  A
C2892      H2897   1.087       .  S
C2893      C2894   1.419       .  A
C2894      N2895   1.429       .  S
N2895      O2899   1.262       .  A
N2895      O2900   1.262       .  A
N2898      O2902   1.262       .  A
N2898      O2901   1.262       .  A
C2903      C2904   1.406       .  A
C2903      C2908   1.403       .  A
C2903      H2910   1.087       .  S
C2904      C2905   1.413       .  A
C2905      C2906   1.401       .  A
C2905      N2912   1.429       .  S
C2906      C2907   1.402       .  A
C2906      H2911   1.087       .  S
C2907      C2908   1.409       .  A
C2908      N2909   1.428       .  S
N2909      O2913   1.262       .  A
N2909      O2914   1.262       .  A
N2912      O2916   1.262       .  A
N2912      O2915   1.262       .  A
C2917      C2918   1.402       .  A
C2917      C2922   1.399       .  A
C2917      H2924   1.087       .  S
C2918      C2919   1.410       .  A
C2919      C2920   1.406       .  A
C2919      N2926   1.428       .  S
C2920      C2921   1.409       .  A
C2920      H2925   1.086       .  S
C2921      C2922   1.415       .  A
C2922      N2923   1.429       .  S
N2923      O2927   1.262       .  A
N2923      O2928   1.262       .  A
N2926      O2930   1.262       .  A
N2926      O2929   1.262       .  A
C2931      C2932   1.407       .  A
C2931      C2936   1.411       .  A
C2931      H2938   1.088       .  S
C2932      C2933   1.413       .  A
C2933      C2934   1.394       .  A
C2933      N2940   1.430       .  S
C2934      C2935   1.405       .  A
C2934      H2939   1.088       .  S
C2935      C2936   1.417       .  A
C2936      N2937   1.428       .  S
N2937      O2941   1.262       .  A
N2937      O2942   1.262       .  A
N2940      O2944   1.262       .  A
N2940      O2943   1.262       .  A
C2945      C2946   1.401       .  A
C2945      C2950   1.396       .  A
C2945      H2952   1.088       .  S
C2946      C2947   1.409       .  A
C2947      C2948   1.402       .  A
C2947      N2954   1.428       .  S
C2948      C2949   1.409       .  A
C2948      H2953   1.087       .  S
C2949      C2950   1.415       .  A
C2950      N2951   1.429       .  S
N2951      O2955   1.262       .  A
N2951      O2956   1.262       .  A
N2954      O2958   1.262       .  A
N2954      O2957   1.262       .  A
C2959      C2960   1.406       .  A
C2959      C2964   1.408       .  A
C2959      H2966   1.088       .  S
C2960      C2961   1.407       .  A
C2961      C2962   1.391       .  A
C2961      N2968   1.429       .  S
C2962      C2963   1.402       .  A
C2962      H2967   1.089       .  S
C2963      C2964   1.412       .  A
C2964      N2965   1.429       .  S
N2965      O2969   1.262       .  A
N2965      O2970   1.262       .  A
N2968      O2972   1.262       .  A
N2968      O2971   1.262       .  A
C2973      C2974   1.403       .  A
C2973      C2978   1.403       .  A
C2973      H2980   1.088       .  S
C2974      C2975   1.410       .  A
C2975      C2976   1.398       .  A
C2975      N2982   1.429       .  S
C2976      C2977   1.403       .  A
C2976      H2981   1.088       .  S
C2977      C2978   1.413       .  A
C2978      N2979   1.427       .  S
N2979      O2983   1.261       .  A
N2979      O2984   1.262       .  A
N2982      O2986   1.262       .  A
N2982      O2985   1.262       .  A
C2987      C2988   1.397       .  A
C2987      C2992   1.397       .  A
C2987      H2994   1.105       .  S
C2988      C2989   1.409       .  A
C2989      C2990   1.402       .  A
C2989      N2996   1.429       .  S
C2990      C2991   1.403       .  A
C2990      H2995   1.105       .  S
C2991      C2992   1.414       .  A
C2992      N2993   1.428       .  S
N2993      O2997   1.262       .  A
N2993      O2998   1.262       .  A
N2996      O3000   1.262       .  A
N2996      O2999   1.262       .  A
