geometry optimzed in LAMMPS
_audit_creation_date              2020-11-30 
_audit_creation_method            'lammps2cif' 
_symmetry_space_group_name_H-M    'P1' 
_symmetry_Int_Tables_number       1 
_symmetry_cell_setting            triclinic 
loop_ 
_symmetry_equiv_pos_as_xyz 
  x,y,z 
_cell_length_a                    33.76899309 
_cell_length_b                    33.81364601193979 
_cell_length_c                    34.7363976995144 
_cell_angle_alpha                 90.2256412076804 
_cell_angle_beta                  90.05871067105814 
_cell_angle_gamma                 90.53533046690717 
loop_ 
_atom_site_label 
_atom_site_type_symbol 
_atom_site_fract_x 
_atom_site_fract_y 
_atom_site_fract_z 
_atom_site_charge 
O1          O  0.78345507  0.72038437  0.42937641    -0.71100
O2          O  0.68127673  0.73153305  0.38586996    -0.71400
O3          O  0.73715276  0.67498159  0.38527786    -0.71200
O4          O  0.72738730  0.77723594  0.42968331    -0.71200
O5          O  0.74995608  0.80366864  0.37709676    -0.71200
O6          O  0.76772290  0.70123325  0.33639189    -0.71200
O7          O  0.70799324  0.75307104  0.33291435    -0.71100
O8          O  0.80958697  0.75104583  0.38060612    -0.71300
V9          V  0.73287880  0.72658974  0.40665014     1.35200
V10         V  0.75828517  0.75181223  0.35769478     1.35200
C11         C  0.81395852  0.73315279  0.41221714     0.78100
C12         C  0.67729011  0.74394148  0.35189154     0.78200
C13         C  0.75544419  0.67085850  0.35384878     0.78000
C14         C  0.73534056  0.80792612  0.41030484     0.78000
O15         O  0.74047748  0.31061757  0.37065619    -0.71100
O16         O  0.72763665  0.21065263  0.41920641    -0.71400
O17         O  0.78437236  0.26783196  0.41843712    -0.71200
O18         O  0.68404118  0.25396814  0.37210440    -0.71200
O19         O  0.71173655  0.22644937  0.32233182    -0.71200
O20         O  0.81239448  0.23722691  0.37065638    -0.71200
O21         O  0.75478809  0.18181634  0.36991167    -0.71100
O22         O  0.77005791  0.28165920  0.32285705    -0.71300
V23         V  0.73475839  0.26013903  0.39421530     1.35200
V24         V  0.76162994  0.23235795  0.34731554     1.35200
C25         C  0.75861810  0.31314890  0.33891392     0.78100
C26         C  0.73797384  0.17921284  0.40223083     0.78200
C27         C  0.81545410  0.25576152  0.40219641     0.78000
C28         C  0.68081097  0.23752709  0.33966841     0.78000
O29         O  0.31296420  0.26260289  0.37758628    -0.71100
O30         O  0.20990150  0.27339295  0.41906751    -0.71400
O31         O  0.26800372  0.21911533  0.42418692    -0.71200
O32         O  0.25525574  0.31659195  0.37219523    -0.71200
O33         O  0.22603388  0.28544673  0.32508896    -0.71200
O34         O  0.24705197  0.18733952  0.37356073    -0.71200
O35         O  0.18557902  0.23789272  0.37217337    -0.71100
O36         O  0.28764825  0.23522453  0.32627714    -0.71300
V37         V  0.26097564  0.26728572  0.39738183     1.35200
V38         V  0.23708185  0.23704139  0.35015740     1.35200
C39         C  0.31772461  0.24712469  0.34485454     0.78100
C40         C  0.18026592  0.25785070  0.40250859     0.78200
C41         C  0.26155175  0.18655678  0.40712624     0.78000
C42         C  0.23704185  0.31769299  0.34043729     0.78000
O43         O  0.28617524  0.76802148  0.32550634    -0.71100
O44         O  0.18625443  0.76259306  0.37608059    -0.71400
O45         O  0.24536942  0.81713409  0.37103375    -0.71200
O46         O  0.22672753  0.71419541  0.33059695    -0.71200
O47         O  0.26119242  0.68886848  0.37711555    -0.71200
O48         O  0.26745100  0.79104838  0.42390165    -0.71200
O49         O  0.21435939  0.73096892  0.42290894    -0.71100
O50         O  0.31482922  0.74872487  0.37822635    -0.71300
V51         V  0.23672856  0.76509609  0.35166053     1.35200
V52         V  0.26397582  0.74043845  0.39966636     1.35200
C53         C  0.31754825  0.76079663  0.34402824     0.78100
C54         C  0.18314615  0.74322362  0.40704087     0.78200
C55         C  0.25895145  0.82155661  0.40468009     0.78000
C56         C  0.24056799  0.68400880  0.34698064     0.78000
O57         O  0.31647768  0.74408293  0.12650948    -0.71100
O58         O  0.21666372  0.72898919  0.07766913    -0.71400
O59         O  0.27405433  0.78568406  0.07669423    -0.71200
O60         O  0.25954353  0.68753481  0.12789925    -0.71200
O61         O  0.22986261  0.71818972  0.17464939    -0.71200
O62         O  0.24498944  0.81605019  0.12391456    -0.71200
O63         O  0.18781119  0.75996762  0.12476811    -0.71100
O64         O  0.28734983  0.77449091  0.17364259    -0.71300
V65         V  0.26605021  0.73715145  0.10303146     1.35200
V66         V  0.23812536  0.76649862  0.14836271     1.35200
C67         C  0.31901043  0.76321347  0.15775012     0.78100
C68         C  0.18528755  0.74122043  0.09337430     0.78200
C69         C  0.26329813  0.81772185  0.09228536     0.78000
C70         C  0.24112122  0.68617437  0.15952108     0.78000
O71         O  0.73764928  0.78993601  0.08300409    -0.71100
O72         O  0.74636493  0.69094647  0.13362531    -0.71400
O73         O  0.69277942  0.74956624  0.13271178    -0.71200
O74         O  0.79102583  0.73110929  0.08399960    -0.71200
O75         O  0.82168651  0.76311399  0.12973137    -0.71200
O76         O  0.72347655  0.77602840  0.18148004    -0.71200
O77         O  0.77992709  0.71934920  0.17951599    -0.71100
O78         O  0.76552643  0.81933092  0.13195591    -0.71300
V79         V  0.74255560  0.74101420  0.10924182     1.35200
V80         V  0.77205572  0.76885922  0.15484695     1.35200
C81         C  0.74892382  0.82149705  0.09945883     0.78100
C82         C  0.76609957  0.68797235  0.16441381     0.78200
C83         C  0.69122708  0.76650248  0.16513553     0.78000
C84         C  0.82303084  0.74342824  0.09877206     0.78000
O85         O  0.68206833  0.25636507  0.12337035    -0.71100
O86         O  0.78049849  0.27291208  0.07229473    -0.71400
O87         O  0.72434668  0.21482157  0.07288039    -0.71200
O88         O  0.73767527  0.31423553  0.12272908    -0.71200
O89         O  0.77030762  0.28569781  0.16874418    -0.71200
O90         O  0.75461329  0.18585121  0.12013422    -0.71200
O91         O  0.81095295  0.24222700  0.11839763    -0.71100
O92         O  0.71312185  0.22849314  0.17065612    -0.71300
V93         V  0.73179860  0.26399946  0.09867564     1.35200
V94         V  0.76153374  0.23622709  0.14369224     1.35200
C95         C  0.68074261  0.23848137  0.15524901     0.78100
C96         C  0.81246207  0.26075898  0.08696321     0.78200
C97         C  0.73635924  0.18337192  0.08844563     0.78000
C98         C  0.75748768  0.31698273  0.15347170     0.78000
C99         C  0.50518644  0.81984427  0.21557774     0.46100
H100        H  0.50791428  0.81775975  0.18387801    -0.02900
C101        C  0.50114149  0.82015314  0.29013522     0.46200
H102        H  0.49811800  0.81970854  0.32171389    -0.02900
C103        C  0.50410431  0.86219925  0.23205361    -0.16600
C104        C  0.46757182  0.79986962  0.23147231    -0.16400
C105        C  0.54051984  0.80038499  0.23543125    -0.16700
C106        C  0.50220873  0.86252656  0.27221111    -0.16700
C107        C  0.46560772  0.79989069  0.27094736    -0.16300
C108        C  0.53776502  0.79816943  0.27491610    -0.16600
C109        C  0.68158592  0.99518978  0.45997791     0.46100
H110        H  0.68246486  0.99477252  0.42808081    -0.02900
C111        C  0.68294882  0.99813563  0.03468102     0.46200
H112        H  0.68513214  0.99929684  0.06648626    -0.02900
C113        C  0.63962994  0.99635466  0.47781327    -0.16600
C114        C  0.70130654  0.95932485  0.47868575    -0.16400
C115        C  0.70272974  0.03182983  0.47626182    -0.16700
C116        C  0.64030471  0.99724079  0.01797031    -0.16700
C117        C  0.70280974  0.96133856  0.01812131    -0.16300
C118        C  0.70322400  0.03351839  0.01555140    -0.16600
C119        C  0.32121386  0.00481194  0.46492789     0.46100
H120        H  0.32205215  0.00634536  0.43300460    -0.02900
C121        C  0.31959242  0.00247125  0.03981829     0.46200
H122        H  0.31799489  0.00190822  0.07171031    -0.02900
C123        C  0.36257587  0.00379062  0.48365151    -0.16600
C124        C  0.30122813  0.04064765  0.48336762    -0.16400
C125        C  0.29960106  0.96807498  0.48081090    -0.16700
C126        C  0.36203858  0.00251357  0.02337994    -0.16700
C127        C  0.29987427  0.03925171  0.02279305    -0.16300
C128        C  0.29941454  0.96681759  0.02037839    -0.16600
C129        C  0.49475678  0.18031815  0.21128030     0.46100
H130        H  0.49389180  0.18217214  0.17937177    -0.02900
C131        C  0.49612860  0.17741621  0.28617941     0.46200
H132        H  0.49724910  0.17632362  0.31804156    -0.02900
C133        C  0.49279857  0.13782915  0.22688509    -0.16600
C134        C  0.53253254  0.19808327  0.22912311    -0.16400
C135        C  0.45990648  0.20119695  0.23072570    -0.16700
C136        C  0.49329393  0.13631213  0.26661631    -0.16700
C137        C  0.53289601  0.19722516  0.26867127    -0.16300
C138        C  0.46098780  0.20064614  0.27034582    -0.16600
C139        C  0.50366510  0.99906286  0.12446024    -0.01800
C140        C  0.49762598  0.00308611  0.37578608    -0.01800
C141        C  0.81997912  0.50043939  0.21152602     0.46100
H142        H  0.81843176  0.50189215  0.17966471    -0.02900
C143        C  0.82093786  0.49539955  0.28619706     0.46200
H144        H  0.82036605  0.49374636  0.31809563    -0.02900
C145        C  0.86241511  0.49841547  0.22823175    -0.16600
C146        C  0.80125332  0.53603985  0.23202991    -0.16400
C147        C  0.79870420  0.46357850  0.22729402    -0.16700
C148        C  0.86282209  0.49580677  0.26819408    -0.16700
C149        C  0.80124275  0.53277844  0.27131912    -0.16300
C150        C  0.79929093  0.46102453  0.26658187    -0.16600
C151        C  0.99989635  0.68015308  0.46323690     0.46100
H152        H  0.99857814  0.68145072  0.43132897    -0.02900
C153        C  0.00202717  0.67932461  0.03804438     0.46200
H154        H  0.00378567  0.68099123  0.06979530    -0.02900
C155        C  0.99935719  0.63783324  0.47999766    -0.16600
C156        C  0.03704167  0.69966446  0.48044321    -0.16400
C157        C  0.96474081  0.70068728  0.48203308    -0.16700
C158        C  0.00023603  0.63712653  0.02026567    -0.16700
C159        C  0.03814016  0.69925340  0.01987970    -0.16300
C160        C  0.96607437  0.70055869  0.02142917    -0.16600
C161        C  0.99841230  0.31744185  0.45845836     0.46100
H162        H  0.99970219  0.31562187  0.42672352    -0.02900
C163        C  0.99783203  0.31665217  0.03318346     0.46200
H164        H  0.99707588  0.31520557  0.06509321    -0.02900
C165        C  0.99834007  0.35966042  0.47639309    -0.16600
C166        C  0.96221518  0.29661655  0.47554917    -0.16400
C167        C  0.03410201  0.29698026  0.47590770    -0.16700
C168        C  0.99809050  0.35897505  0.01663242    -0.16700
C169        C  0.96170040  0.29639281  0.01481712    -0.16300
C170        C  0.03428842  0.29711848  0.01522618    -0.16600
C171        C  0.18017043  0.50454805  0.21291820     0.46100
H172        H  0.18194351  0.50733530  0.18116972    -0.02900
C173        C  0.17963213  0.49964123  0.28750629     0.46200
H174        H  0.18104299  0.49681626  0.31925979    -0.02900
C175        C  0.13762690  0.50251747  0.22964970    -0.16600
C176        C  0.20089085  0.46783260  0.22840200    -0.16400
C177        C  0.19986015  0.53974204  0.23325372    -0.16700
C178        C  0.13737536  0.49965269  0.26984524    -0.16700
C179        C  0.20048943  0.46531737  0.26761845    -0.16300
C180        C  0.19953542  0.53737694  0.27250253    -0.16600
C181        C  0.00026935  0.49666590  0.12254987    -0.01800
C182        C  0.99925686  0.50021985  0.37475343    -0.01800
O183        O  0.25862979  0.31702728  0.12458565    -0.71100
O184        O  0.26687303  0.21571362  0.07746299    -0.71400
O185        O  0.21342991  0.27486948  0.07607430    -0.71200
O186        O  0.31167134  0.25800592  0.12586602    -0.71200
O187        O  0.28033252  0.23400216  0.17524225    -0.71200
O188        O  0.18276360  0.24513223  0.12284612    -0.71200
O189        O  0.23847493  0.18883686  0.12721686    -0.71100
O190        O  0.22439671  0.29066951  0.17102805    -0.71300
V191        V  0.26200715  0.26589859  0.10186237     1.35200
V192        V  0.23213015  0.24026405  0.14821669     1.35200
C193        C  0.23863753  0.32114155  0.15502725     0.78100
C194        C  0.25554648  0.18500445  0.09514134     0.78200
C195        C  0.18133168  0.26311135  0.09109959     0.78000
C196        C  0.31270493  0.24213565  0.15868898     0.78000
C197        C  0.03520211  0.47614254  0.31298815    -0.20700
C198        C  0.03666861  0.49728859  0.34840882    -0.08700
C199        C  0.07430673  0.51157894  0.35983043     0.30200
C200        C  0.10520024  0.51421197  0.33331912    -0.20700
C201        C  0.10232332  0.49695818  0.29644332    -0.08700
C202        C  0.06778132  0.47506991  0.28789283     0.30200
F203        F  0.06553200  0.45199920  0.25592109    -0.19200
H204        H  0.00870482  0.46009365  0.30453483     0.18500
H205        H  0.13162352  0.52997196  0.34232880     0.18500
F206        F  0.08157053  0.52406506  0.39629966    -0.19200
C207        C  0.10628995  0.48589284  0.16571707    -0.20700
C208        C  0.10280176  0.50345926  0.20240374    -0.08700
C209        C  0.06772742  0.52406020  0.21028693     0.30200
C210        C  0.03544732  0.52169511  0.18473527    -0.20700
C211        C  0.03743617  0.50019743  0.14954139    -0.08700
C212        C  0.07535658  0.48660271  0.13892087     0.30200
F213        F  0.08309959  0.47358040  0.10278219    -0.19200
H214        H  0.13331429  0.47156902  0.15702607     0.18500
H215        H  0.00871858  0.53711158  0.19265656     0.18500
F216        F  0.06472361  0.54727499  0.24206203    -0.19200
C217        C  0.18110549  0.40814270  0.19157781    -0.20700
C218        C  0.21138270  0.43379630  0.20386829    -0.08700
C219        C  0.25111213  0.42328269  0.19823467     0.30200
C220        C  0.26027110  0.38696049  0.18098067    -0.20700
C221        C  0.22981552  0.36055497  0.17041405    -0.08700
C222        C  0.19017775  0.37162533  0.17527033     0.30200
F223        F  0.16023888  0.34683701  0.16458269    -0.19200
H224        H  0.15039687  0.41539175  0.19676010     0.18500
H225        H  0.29096940  0.37874375  0.17733177     0.18500
F226        F  0.28080841  0.44745251  0.21071288    -0.19200
C227        C  0.01954012  0.42426991  0.10434900    -0.20700
C228        C  0.99707371  0.45837173  0.09721750    -0.08700
C229        C  0.97029372  0.45642233  0.06557571     0.30200
C230        C  0.97080359  0.42458562  0.03942213    -0.20700
C231        C  0.99748188  0.39343417  0.04407083    -0.08700
C232        C  0.02110498  0.39324095  0.07761200     0.30200
F233        F  0.04674538  0.36344929  0.08448368    -0.19200
H234        H  0.03705264  0.42161122  0.13021770     0.18500
H235        H  0.95049591  0.42446566  0.01526903     0.18500
F236        F  0.94460256  0.48622322  0.05884888    -0.19200
C237        C  0.98975337  0.42584605  0.38781211    -0.20700
C238        C  0.00219511  0.46317714  0.40137633    -0.08700
C239        C  0.01984373  0.46412503  0.43861400     0.30200
C240        C  0.01961445  0.43048609  0.46218373    -0.20700
C241        C  0.00007200  0.39550971  0.45072475    -0.08700
C242        C  0.98496820  0.39397388  0.41274154     0.30200
F243        F  0.96342013  0.36276545  0.39948000    -0.19200
H244        H  0.98017548  0.42193878  0.35831583     0.18500
H245        H  0.03488472  0.43215232  0.48950286     0.18500
F246        F  0.03811577  0.49707479  0.45252461    -0.19200
C247        C  0.07313253  0.25744280  0.06215121    -0.20700
C248        C  0.07074870  0.28982651  0.03736396    -0.08700
C249        C  0.10424882  0.31398055  0.03139102     0.30200
C250        C  0.14019565  0.30461370  0.04851854    -0.20700
C251        C  0.14311059  0.27164069  0.07267015    -0.08700
C252        C  0.10912272  0.24835146  0.07988673     0.30200
F253        F  0.11096917  0.21618526  0.10303409    -0.19200
H254        H  0.04745026  0.23865447  0.06685964     0.18500
H255        H  0.16569494  0.32350533  0.04326853     0.18500
F256        F  0.10215253  0.34656741  0.50881406    -0.19200
C257        C  0.99040815  0.57093475  0.10900923    -0.20700
C258        C  0.00346812  0.53386979  0.09592288    -0.08700
C259        C  0.02154361  0.53320559  0.05888081     0.30200
C260        C  0.02092318  0.56654890  0.03486069    -0.20700
C261        C  0.00134334  0.60123561  0.04598438    -0.08700
C262        C  0.98606221  0.60271146  0.08386665     0.30200
F263        F  0.96507095  0.63398959  0.09686482    -0.19200
H264        H  0.98036378  0.57472288  0.13833200     0.18500
H265        H  0.03615386  0.56502229  0.00754513     0.18500
F266        F  0.04055476  0.50076319  0.04559029    -0.19200
C267        C  0.97037297  0.57232628  0.45739951    -0.20700
C268        C  0.99777059  0.60337504  0.45274769    -0.08700
C269        C  0.02127334  0.60362646  0.41923856     0.30200
C270        C  0.01885426  0.57281556  0.39242938    -0.20700
C271        C  0.99599554  0.53861768  0.39969641    -0.08700
C272        C  0.96913475  0.54054128  0.43116244     0.30200
F273        F  0.94277428  0.51078016  0.43762478    -0.19200
H274        H  0.95012002  0.57249961  0.48155326     0.18500
H275        H  0.03630368  0.57559424  0.36654033     0.18500
F276        F  0.04774248  0.63320355  0.41254170    -0.19200
C277        C  0.92885158  0.52388699  0.28930292    -0.20700
C278        C  0.89820228  0.49609280  0.29407255    -0.08700
C279        C  0.89820986  0.47272350  0.32752303     0.30200
C280        C  0.92806152  0.47687879  0.35507055    -0.20700
C281        C  0.96150464  0.50119573  0.34855686    -0.08700
C282        C  0.95985427  0.52676851  0.31619488     0.30200
F283        F  0.98881715  0.55406034  0.30994231    -0.19200
H284        H  0.92846661  0.54395049  0.26508524     0.18500
H285        H  0.92482108  0.46009774  0.38126787     0.18500
F286        F  0.86939760  0.44530028  0.33382097    -0.19200
C287        C  0.92843334  0.47095899  0.20686928    -0.20700
C288        C  0.89748372  0.49784363  0.20169411    -0.08700
C289        C  0.89781384  0.52118346  0.16817563     0.30200
C290        C  0.92841342  0.51816808  0.14125426    -0.20700
C291        C  0.96206760  0.49483050  0.14828821    -0.08700
C292        C  0.96002197  0.46911532  0.18055846     0.30200
F293        F  0.98920797  0.44272248  0.18735585    -0.19200
H294        H  0.92802522  0.45097438  0.23114812     0.18500
H295        H  0.92554177  0.53505978  0.11511878     0.18500
F296        F  0.86894313  0.54794213  0.16147780    -0.19200
C297        C  0.52992485  0.08214433  0.29925318    -0.20700
C298        C  0.49394989  0.09982428  0.29009127    -0.08700
C299        C  0.45922548  0.08498172  0.30664694     0.30200
C300        C  0.46077869  0.05360888  0.33253743    -0.20700
C301        C  0.49722796  0.03823530  0.34615749    -0.08700
C302        C  0.53182983  0.05187460  0.32668999     0.30200
F303        F  0.56784812  0.03613908  0.33301206    -0.19200
H304        H  0.55696447  0.09255877  0.28574665     0.18500
H305        H  0.43276870  0.04152667  0.34222180     0.18500
F306        F  0.42348039  0.10028527  0.29725128    -0.19200
C307        C  0.51862917  0.10496992  0.16771424    -0.20700
C308        C  0.49369919  0.10332992  0.19996964    -0.08700
C309        C  0.46802622  0.07068655  0.20353317     0.30200
C310        C  0.47139044  0.03834883  0.17862202    -0.20700
C311        C  0.49959977  0.03780488  0.14852559    -0.08700
C312        C  0.51998149  0.07384555  0.14116949     0.30200
F313        F  0.54034219  0.08030212  0.10817813    -0.19200
H314        H  0.53693630  0.13085725  0.16251621     0.18500
H315        H  0.45200089  0.01313983  0.18323189     0.18500
F316        F  0.43818958  0.07061225  0.22944191    -0.19200
C317        C  0.38843939  0.18931070  0.21876096    -0.20700
C318        C  0.42331301  0.20982277  0.20917340    -0.08700
C319        C  0.42217558  0.23985065  0.18153087     0.30200
C320        C  0.38599465  0.25049997  0.16510869    -0.20700
C321        C  0.35070139  0.23142387  0.17636144    -0.08700
C322        C  0.35233607  0.20027740  0.20299780     0.30200
F323        F  0.31920717  0.17994578  0.21341359    -0.19200
H324        H  0.38910511  0.16547878  0.23951993     0.18500
H325        H  0.38544500  0.27412686  0.14415684     0.18500
F326        F  0.45561940  0.25984080  0.17165492    -0.19200
C327        C  0.43092829  0.02538938  0.04151728    -0.20700
C328        C  0.39773072  0.00150142  0.04906672    -0.08700
C329        C  0.39778286  0.97873561  0.08293681     0.30200
C330        C  0.43040812  0.97944031  0.10785923    -0.20700
C331        C  0.46570731  0.99995788  0.09841868    -0.08700
C332        C  0.46426386  0.02473050  0.06547146     0.30200
F333        F  0.49528280  0.04840602  0.05585280    -0.19200
H334        H  0.43105248  0.04537108  0.01731791     0.18500
H335        H  0.42752925  0.96357848  0.13463807     0.18500
F336        F  0.36658053  0.95502647  0.09201713    -0.19200
C337        C  0.40945853  0.03885168  0.44061089    -0.20700
C338        C  0.39833720  0.00403317  0.45913500    -0.08700
C339        C  0.41958104  0.96952412  0.45198655     0.30200
C340        C  0.45034179  0.96953272  0.42490532    -0.20700
C341        C  0.46158456  0.00415801  0.40455627    -0.12700
C342        C  0.44158281  0.03963727  0.41535298     0.30200
F343        F  0.45438718  0.07599287  0.40419113    -0.19200
H344        H  0.39398901  0.06606335  0.44690371     0.18500
H345        H  0.46509279  0.94192784  0.42021877     0.18500
F346        F  0.40988495  0.93549708  0.47047758    -0.19200
C347        C  0.24829924  0.08959239  0.03877663    -0.20700
C348        C  0.28537437  0.07271933  0.04669444    -0.08700
C349        C  0.31087853  0.09162082  0.07311116     0.30200
C350        C  0.30034938  0.12787357  0.08947404    -0.20700
C351        C  0.26431294  0.14558372  0.07988160    -0.08700
C352        C  0.23787848  0.12594268  0.05510157     0.30200
F353        F  0.20275319  0.14257358  0.04571770    -0.19200
H354        H  0.22829253  0.07547730  0.01844555     0.18500
H355        H  0.32091001  0.14283253  0.10872191     0.18500
F356        F  0.34716024  0.07666534  0.08085279    -0.19200
C357        C  0.60859043  0.01502170  0.08103122    -0.20700
C358        C  0.60549956  0.99616419  0.04492613    -0.08700
C359        C  0.57145533  0.97294774  0.03783446     0.30200
C360        C  0.53966774  0.97329492  0.06384178    -0.20700
C361        C  0.54114219  0.99575786  0.09838298    -0.08700
C362        C  0.57837897  0.01219544  0.10839101     0.30200
F363        F  0.58559607  0.02720686  0.14396931    -0.19200
H364        H  0.63468151  0.03206740  0.08870483     0.18500
H365        H  0.51353140  0.95602620  0.05664598     0.18500
F366        F  0.56913335  0.94886015  0.50660800    -0.19200
C367        C  0.57302638  0.02512214  0.46031596    -0.20700
C368        C  0.60404050  0.99927209  0.45194836    -0.08700
C369        C  0.60279668  0.97914556  0.41644239     0.30200
C370        C  0.57130005  0.98436230  0.39085929    -0.20700
C371        C  0.53678794  0.00541166  0.40117196    -0.08700
C372        C  0.54003409  0.02819165  0.43579223     0.30200
F373        F  0.51229865  0.05452703  0.44641686    -0.19200
H374        H  0.57427871  0.04330104  0.48603064     0.18500
H375        H  0.57364773  0.96998486  0.36313695     0.18500
F376        F  0.63129392  0.95298277  0.40654035    -0.19200
C377        C  0.51767417  0.89766745  0.33393062    -0.20700
C378        C  0.49871061  0.89802600  0.29812823    -0.08700
C379        C  0.47316956  0.92959547  0.29065553     0.30200
C380        C  0.47156568  0.96205526  0.31605794    -0.20700
C381        C  0.49416997  0.96377664  0.35073767    -0.08700
C382        C  0.51271802  0.92778643  0.36099372     0.30200
F383        F  0.52687565  0.92114949  0.39696348    -0.19200
H384        H  0.53659148  0.87355889  0.34151420     0.18500
H385        H  0.45195859  0.98542094  0.30791097     0.18500
F386        F  0.44904252  0.92890083  0.25939448    -0.19200
C387        C  0.52534698  0.93231364  0.21417770    -0.20700
C388        C  0.50501026  0.89713548  0.20492707    -0.08700
C389        C  0.48773484  0.89441365  0.16783834     0.30200
C390        C  0.49113139  0.92543085  0.14144939    -0.20700
C391        C  0.50625589  0.96273885  0.15240175    -0.08700
C392        C  0.52552326  0.96476994  0.18891597     0.30200
F393        F  0.54481759  0.99800309  0.20071370    -0.19200
H394        H  0.54110030  0.93496983  0.24121714     0.18500
H395        H  0.47943579  0.92069582  0.11278640     0.18500
F396        F  0.46574105  0.86251698  0.15697828    -0.19200
C397        C  0.81664463  0.40549738  0.18744769    -0.20700
C398        C  0.78699838  0.42959046  0.20279597    -0.08700
C399        C  0.74718957  0.41742324  0.20021212     0.30200
C400        C  0.73736771  0.38102218  0.18315651    -0.20700
C401        C  0.76730112  0.35592995  0.16992251    -0.08700
C402        C  0.80700448  0.36852547  0.17182064     0.30200
F403        F  0.83643691  0.34489003  0.15883360    -0.19200
H404        H  0.84748908  0.41433689  0.18970337     0.18500
H405        H  0.70661479  0.37175963  0.18155066     0.18500
F406        F  0.71811138  0.44021418  0.21522124    -0.19200
C407        C  0.60754921  0.24830599  0.16365305    -0.20700
C408        C  0.64228977  0.22775334  0.17311992    -0.08700
C409        C  0.63956041  0.19535375  0.19832067     0.30200
C410        C  0.60312580  0.18433572  0.21403379    -0.20700
C411        C  0.56888048  0.20612681  0.20622635    -0.08700
C412        C  0.57110864  0.23777920  0.18030319     0.30200
F413        F  0.53860550  0.25962800  0.17258949    -0.19200
H414        H  0.60878760  0.27311435  0.14405343     0.18500
H415        H  0.60184552  0.15957342  0.23372019     0.18500
F416        F  0.67200944  0.17399518  0.20762166    -0.19200
C417        C  0.89992678  0.31739737  0.04732886    -0.20700
C418        C  0.92541883  0.28673447  0.03677101    -0.08700
C419        C  0.91372030  0.24730143  0.04278686     0.30200
C420        C  0.87690298  0.23878127  0.05952324    -0.20700
C421        C  0.85089009  0.26948033  0.06892074    -0.08700
C422        C  0.86261574  0.30887951  0.06270225     0.30200
F423        F  0.83817254  0.33908290  0.07201875    -0.19200
H424        H  0.90842466  0.34792143  0.04231865     0.18500
H425        H  0.86826822  0.20826450  0.06433003     0.18500
F426        F  0.93757034  0.21719375  0.53184737    -0.19200
C427        C  0.75801190  0.11622325  0.06748993    -0.20700
C428        C  0.72806765  0.14460472  0.07067506    -0.08700
C429        C  0.68973663  0.13539893  0.05746115     0.30200
C430        C  0.68160417  0.09837752  0.04123840    -0.20700
C431        C  0.71178449  0.07055367  0.03683951    -0.08700
C432        C  0.75010017  0.07956363  0.05002122     0.30200
F433        F  0.77981999  0.05323659  0.04540043    -0.19200
H434        H  0.78769174  0.12289352  0.07761075     0.18500
H435        H  0.65190815  0.09168531  0.03114781     0.18500
F436        F  0.66001463  0.16193577  0.06094233    -0.19200
C437        C  0.61768214  0.75805670  0.16827165    -0.20700
C438        C  0.65252885  0.77601033  0.18256576    -0.08700
C439        C  0.64960651  0.80434330  0.21218202     0.30200
C440        C  0.61268747  0.81386534  0.22739793    -0.20700
C441        C  0.57820950  0.79446294  0.21438444    -0.08700
C442        C  0.58076700  0.76711759  0.18408179     0.30200
F443        F  0.54798574  0.74759703  0.17132441    -0.19200
H444        H  0.61907643  0.73635667  0.14530994     0.18500
H445        H  0.61107647  0.83533236  0.25057534     0.18500
F446        F  0.68227102  0.82295954  0.22646857    -0.19200
C447        C  0.80753212  0.64433882  0.20549183    -0.20700
C448        C  0.77444295  0.64872407  0.18140565    -0.08700
C449        C  0.75118799  0.61503999  0.17241823     0.30200
C450        C  0.76059049  0.57803358  0.18795228    -0.20700
C451        C  0.79328583  0.57408208  0.21242129    -0.08700
C452        C  0.81714308  0.60740054  0.22051317     0.30200
F453        F  0.84983942  0.60413183  0.24302250    -0.19200
H454        H  0.82644985  0.66947305  0.21224073     0.18500
H455        H  0.74185980  0.55264962  0.18163064     0.18500
F456        F  0.71888559  0.61799842  0.14937981    -0.19200
C457        C  0.70627550  0.88000733  0.09293891    -0.20700
C458        C  0.74059681  0.85993254  0.08204927    -0.08700
C459        C  0.76463291  0.87531415  0.05275648     0.30200
C460        C  0.75351004  0.90981826  0.03361945    -0.20700
C461        C  0.71779081  0.92878096  0.04284749    -0.08700
C462        C  0.69477928  0.91413033  0.07350188     0.30200
F463        F  0.65977088  0.93093509  0.08294287    -0.19200
H464        H  0.68742495  0.86820050  0.11544881     0.18500
H465        H  0.77201513  0.92093355  0.01055410     0.18500
F466        F  0.79815250  0.85638510  0.04202862    -0.19200
C467        C  0.90269876  0.68281999  0.05260954    -0.20700
C468        C  0.93182238  0.71147554  0.04521975    -0.08700
C469        C  0.92597191  0.75077262  0.05683603     0.30200
C470        C  0.89079451  0.76127207  0.07541624    -0.20700
C471        C  0.86090079  0.73280825  0.08118542    -0.08700
C472        C  0.86717595  0.69344711  0.06988191     0.30200
F473        F  0.83894753  0.66524834  0.07573423    -0.19200
H474        H  0.90694260  0.65243929  0.04361133     0.18500
H475        H  0.88628163  0.79171900  0.08403440     0.18500
F476        F  0.95376227  0.77893731  0.04930242    -0.19200
C477        C  0.25822762  0.61703714  0.17826620    -0.20700
C478        C  0.23100263  0.64818904  0.17757894    -0.08700
C479        C  0.19313848  0.64259296  0.19351161     0.30200
C480        C  0.18290700  0.60658733  0.21024724    -0.20700
C481        C  0.21057935  0.57615799  0.21246513    -0.08700
C482        C  0.24822706  0.58122913  0.19611150     0.30200
F483        F  0.27525784  0.55183614  0.19787789    -0.19200
H484        H  0.28740090  0.62079695  0.16579948     0.18500
H485        H  0.15344276  0.60254563  0.22193747     0.18500
F486        F  0.16567985  0.67162621  0.19201522    -0.19200
C487        C  0.39202751  0.75214463  0.16493509    -0.20700
C488        C  0.35796164  0.77377133  0.17446749    -0.08700
C489        C  0.36169629  0.80674848  0.19906870     0.30200
C490        C  0.39836981  0.81684871  0.21478288    -0.20700
C491        C  0.43173204  0.79356973  0.20751416    -0.08700
C492        C  0.42873060  0.76181441  0.18157301     0.30200
F493        F  0.46063802  0.73898491  0.17403470    -0.19200
H494        H  0.38998150  0.72702349  0.14557523     0.18500
H495        H  0.40041392  0.84180265  0.23438739     0.18500
F496        F  0.32993501  0.82928120  0.20810195    -0.19200
C497        C  0.12841879  0.69553544  0.08443322    -0.20700
C498        C  0.14646939  0.73208757  0.07656608    -0.08700
C499        C  0.12721107  0.75932039  0.05290331     0.30200
C500        C  0.09076805  0.74936735  0.03614366    -0.20700
C501        C  0.07329840  0.71208512  0.04267383    -0.08700
C502        C  0.09195909  0.68556174  0.06779944     0.30200
F503        F  0.07622714  0.64917184  0.07450964    -0.19200
H504        H  0.14298081  0.67443782  0.10296778     0.18500
H505        H  0.07669412  0.77024391  0.51703569     0.18500
F506        F  0.14415285  0.79497799  0.04524676    -0.19200
C507        C  0.25095361  0.89001056  0.08414009    -0.20700
C508        C  0.27316767  0.85628059  0.07486637    -0.08700
C509        C  0.30603898  0.86019590  0.05029020     0.30200
C510        C  0.31531635  0.89676550  0.03413234    -0.20700
C511        C  0.29187856  0.92988424  0.04185024    -0.08700
C512        C  0.26023863  0.92666722  0.06771626     0.30200
F513        F  0.23745074  0.95848967  0.07575165    -0.19200
H514        H  0.22593099  0.88781505  0.10351856     0.18500
H515        H  0.34035763  0.89916632  0.01476674     0.18500
F516        F  0.32962559  0.82891493  0.04234627    -0.19200
C517        C  0.37814585  0.80158918  0.33954532    -0.20700
C518        C  0.35649884  0.76844833  0.32715813    -0.08700
C519        C  0.37210299  0.74364114  0.29871562     0.30200
C520        C  0.40902702  0.75241935  0.28249444    -0.20700
C521        C  0.42982832  0.78712721  0.29304215    -0.08700
C522        C  0.41418469  0.81136441  0.32229547     0.30200
F523        F  0.43216762  0.84579697  0.33271305    -0.19200
H524        H  0.36628164  0.82085302  0.36160319     0.18500
H525        H  0.42071376  0.73289706  0.26059022     0.18500
F526        F  0.35153221  0.71126109  0.28651135    -0.19200
C527        C  0.19103892  0.63619983  0.32171223    -0.20700
C528        C  0.23047751  0.64430610  0.33204338    -0.08700
C529        C  0.25919235  0.61494484  0.32676199     0.30200
C530        C  0.24878978  0.57898974  0.30888603    -0.20700
C531        C  0.20950791  0.57163700  0.29745198    -0.08700
C532        C  0.18045984  0.59995809  0.30517974     0.30200
F533        F  0.14220727  0.59343028  0.29472416    -0.19200
H534        H  0.16839445  0.65825745  0.32611697     0.18500
H535        H  0.27150952  0.55745478  0.30279759     0.18500
F536        F  0.29749032  0.62192830  0.33674902    -0.19200
C537        C  0.29908069  0.88336824  0.40830832    -0.20700
C538        C  0.26611083  0.86135483  0.42060841    -0.08700
C539        C  0.24130871  0.87702488  0.44902142     0.30200
C540        C  0.25048910  0.91356837  0.46604463    -0.20700
C541        C  0.28548184  0.93424207  0.45624094    -0.08700
C542        C  0.30893354  0.91941494  0.42602964     0.30200
F543        F  0.34268245  0.93821739  0.41510522    -0.19200
H544        H  0.31820926  0.87176565  0.38604112     0.18500
H545        H  0.23119232  0.92484683  0.98831220     0.18500
F546        F  0.20871494  0.85663691  0.46079043    -0.19200
C547        C  0.14180813  0.69739407  0.44509814    -0.20700
C548        C  0.14439955  0.73230642  0.42349297    -0.08700
C549        C  0.11005963  0.75478074  0.41746758     0.30200
C550        C  0.07417762  0.74315986  0.43453715    -0.20700
C551        C  0.07240291  0.70899101  0.45722745    -0.08700
C552        C  0.10615568  0.68558811  0.46145631     0.30200
F553        F  0.10482628  0.65185490  0.98251576    -0.19200
H554        H  0.16754456  0.67901034  0.44932495     0.18500
H555        H  0.04825383  0.76148295  0.43131275     0.18500
F556        F  0.11152814  0.78857175  0.39655318    -0.19200
C557        C  0.18248292  0.39688194  0.28638938    -0.20700
C558        C  0.20957434  0.42845556  0.28820337    -0.08700
C559        C  0.24543846  0.42400733  0.30795388     0.30200
C560        C  0.25429714  0.38785018  0.32527645    -0.20700
C561        C  0.22774606  0.35572474  0.32231448    -0.08700
C562        C  0.19160231  0.36058084  0.30287248     0.30200
F563        F  0.16469102  0.33057194  0.30063924    -0.19200
H564        H  0.15442935  0.40029626  0.27166321     0.18500
H565        H  0.28218683  0.38465752  0.34032763     0.18500
F566        F  0.27203181  0.45429561  0.30980197    -0.19200
C567        C  0.37835333  0.20750416  0.34396411    -0.20700
C568        C  0.35752656  0.24002170  0.33008595    -0.08700
C569        C  0.37400193  0.26343446  0.30097555     0.30200
C570        C  0.40998927  0.25263745  0.28425465    -0.20700
C571        C  0.42890308  0.21734031  0.29508724    -0.08700
C572        C  0.41382247  0.19617796  0.32679452     0.30200
F573        F  0.43168354  0.16327046  0.34005851    -0.19200
H574        H  0.36609048  0.18967856  0.36700570     0.18500
H575        H  0.42189506  0.27061994  0.26121141     0.18500
F576        F  0.35474195  0.29581987  0.28796641    -0.19200
C577        C  0.11971541  0.23658344  0.43801284    -0.20700
C578        C  0.14038589  0.26541243  0.41705164    -0.08700
C579        C  0.12389472  0.30298115  0.41204247     0.30200
C580        C  0.08771340  0.31211457  0.42910964    -0.20700
C581        C  0.06818831  0.28422991  0.45223181    -0.08700
C582        C  0.08377183  0.24596656  0.45572823     0.30200
F583        F  0.06471278  0.21818588  0.97705143    -0.19200
H584        H  0.13214944  0.20744883  0.44187031     0.18500
H585        H  0.07612041  0.34172852  0.42621601     0.18500
F586        F  0.14350678  0.33118686  0.39165840    -0.19200
C587        C  0.25392069  0.11296812  0.41411632    -0.20700
C588        C  0.27213578  0.14874978  0.42556960    -0.08700
C589        C  0.30172227  0.14797044  0.45409047     0.30200
C590        C  0.31219776  0.11236981  0.47116231    -0.20700
C591        C  0.29259197  0.07701807  0.46125435    -0.08700
C592        C  0.26389146  0.07729040  0.43202530     0.30200
F593        F  0.24463638  0.04343067  0.42181635    -0.19200
H594        H  0.23136507  0.11277477  0.39192772     0.18500
H595        H  0.33518714  0.11248723  0.49293854     0.18500
F596        F  0.32103119  0.18151950  0.46519305    -0.19200
C597        C  0.62057137  0.19620708  0.33634179    -0.20700
C598        C  0.64159243  0.22956747  0.32377853    -0.08700
C599        C  0.62440781  0.25530762  0.29729501     0.30200
C600        C  0.58708816  0.24646857  0.28206123    -0.20700
C601        C  0.56730631  0.21109730  0.29198859    -0.08700
C602        C  0.58359015  0.18695198  0.32069421     0.30200
F603        F  0.56506406  0.15339001  0.33230107    -0.19200
H604        H  0.63338423  0.17667224  0.35751320     0.18500
H605        H  0.57450106  0.26620073  0.26094125     0.18500
F606        F  0.64404760  0.28834571  0.28562731    -0.19200
C607        C  0.80410650  0.35582678  0.30138705    -0.20700
C608        C  0.76835322  0.35175413  0.32158879    -0.08700
C609        C  0.74345211  0.38469552  0.32546953     0.30200
C610        C  0.75382011  0.42071843  0.30810053    -0.20700
C611        C  0.78927785  0.42423359  0.28738324    -0.08700
C612        C  0.81478564  0.39183777  0.28492118     0.30200
F613        F  0.85015492  0.39513688  0.26662387    -0.19200
H614        H  0.82418464  0.33114983  0.29884050     0.18500
H615        H  0.73398726  0.44562128  0.31022950     0.18500
F616        F  0.70869980  0.38169742  0.34487863    -0.19200
C617        C  0.68143022  0.09476748  0.44707482    -0.20700
C618        C  0.71133654  0.06690771  0.45247471    -0.08700
C619        C  0.74987015  0.07513027  0.43952731     0.30200
C620        C  0.75846895  0.11153341  0.42215560    -0.20700
C621        C  0.72896795  0.14033726  0.41891528    -0.08700
C622        C  0.69026082  0.13153347  0.43105541     0.30200
F623        F  0.66100454  0.15850181  0.42733904    -0.19200
H624        H  0.65158057  0.08863996  0.45695533     0.18500
H625        H  0.78836652  0.11782416  0.41253422     0.18500
F626        F  0.77920669  0.04850719  0.44473362    -0.19200
C627        C  0.86061580  0.30419018  0.43268924    -0.20700
C628        C  0.85423675  0.26567482  0.41878212    -0.08700
C629        C  0.88484202  0.23789478  0.42086726     0.30200
C630        C  0.92096323  0.24842128  0.43811150    -0.20700
C631        C  0.92686025  0.28682574  0.45249083    -0.08700
C632        C  0.89680753  0.31488539  0.44901436     0.30200
F633        F  0.90205780  0.35226743  0.96262319    -0.19200
H634        H  0.83746103  0.32607760  0.43081856     0.18500
H635        H  0.94386807  0.22645105  0.44125541     0.18500
F636        F  0.87910808  0.20031498  0.40802057    -0.19200
C637        C  0.80185031  0.61609539  0.34376997    -0.20700
C638        C  0.76405064  0.63178801  0.33821932    -0.08700
C639        C  0.73702539  0.61256290  0.31373565     0.30200
C640        C  0.74863278  0.57894386  0.29332619    -0.20700
C641        C  0.78717119  0.56427463  0.29740340    -0.08700
C642        C  0.81333532  0.58225004  0.32376483     0.30200
F643        F  0.85092181  0.56905698  0.32788320    -0.19200
H644        H  0.82302277  0.63109743  0.36234917     0.18500
H645        H  0.72813906  0.56519223  0.27321718     0.18500
F646        F  0.70032573  0.62752030  0.30808181    -0.19200
C647        C  0.61143806  0.77491877  0.35563151    -0.20700
C648        C  0.63769256  0.75044106  0.33584549    -0.08700
C649        C  0.62642503  0.73462132  0.30021096     0.30200
C650        C  0.59073766  0.74610595  0.28337549    -0.20700
C651        C  0.56789635  0.77685462  0.29956971    -0.08700
C652        C  0.57676949  0.78796334  0.33792782     0.30200
F653        F  0.55295436  0.81142757  0.35889812    -0.19200
H654        H  0.61887730  0.78579791  0.38415310     0.18500
H655        H  0.58238961  0.73250947  0.25633138     0.18500
F656        F  0.65017514  0.70876564  0.28141924    -0.19200
C657        C  0.88406863  0.75359057  0.42691497    -0.20700
C658        C  0.85359177  0.72501237  0.42794987    -0.08700
C659        C  0.86125124  0.68767836  0.44385269     0.30200
C660        C  0.89831611  0.67953220  0.45939849    -0.20700
C661        C  0.92794185  0.70874651  0.46049268    -0.08700
C662        C  0.92103316  0.74566710  0.44358031     0.30200
F663        F  0.94963310  0.77412315  0.44397699    -0.19200
H664        H  0.87882642  0.78232582  0.41432842     0.18500
H665        H  0.90356635  0.65073013  0.97189332     0.18500
F666        F  0.83298795  0.65884799  0.44392756    -0.19200
C667        C  0.73791663  0.91864512  0.43010454    -0.20700
C668        C  0.70763218  0.92185005  0.45745041    -0.08700
C669        C  0.68513847  0.88815988  0.46713164     0.30200
C670        C  0.69473896  0.85133853  0.45187659    -0.20700
C671        C  0.72607311  0.84753424  0.42569887    -0.08700
C672        C  0.74703686  0.88169582  0.41406096     0.30200
F673        F  0.77722943  0.87916065  0.38843958    -0.19200
H674        H  0.75531799  0.94444702  0.42226695     0.18500
H675        H  0.67742004  0.82571181  0.46041167     0.18500
F676        F  0.65437040  0.89081122  0.99207411    -0.19200
O677        O  0.78347617  0.72040983  0.92938916    -0.71100
O678        O  0.68131593  0.73156345  0.88584965    -0.71400
O679        O  0.73717924  0.67500326  0.88529048    -0.71200
O680        O  0.72742039  0.77726594  0.92966648    -0.71200
O681        O  0.75000144  0.80368602  0.87707867    -0.71200
O682        O  0.76777681  0.70123474  0.83641022    -0.71200
O683        O  0.70805272  0.75307645  0.83289412    -0.71100
O684        O  0.80962872  0.75105943  0.88062249    -0.71300
V685        V  0.73290943  0.72661643  0.90664704     1.35200
V686        V  0.75833543  0.75182240  0.85769338     1.35200
C687        C  0.81398716  0.73317145  0.91223798     0.78100
C688        C  0.67734205  0.74395842  0.85186499     0.78200
C689        C  0.75548211  0.67086763  0.85387007     0.78000
C690        C  0.73537718  0.80795073  0.91028256     0.78000
O691        O  0.74045890  0.31063320  0.87065052    -0.71100
O692        O  0.72763195  0.21066143  0.91919039    -0.71400
O693        O  0.78436559  0.26784299  0.91841425    -0.71200
O694        O  0.68402486  0.25398312  0.87210293    -0.71200
O695        O  0.71170952  0.22647225  0.82232028    -0.71200
O696        O  0.81237739  0.23724234  0.87062493    -0.71200
O697        O  0.75477031  0.18182989  0.86988625    -0.71100
O698        O  0.77003037  0.28168057  0.82284254    -0.71300
V699        V  0.73474625  0.26015123  0.89420353     1.35200
V700        V  0.76160746  0.23237587  0.84729479     1.35200
C701        C  0.75859654  0.31316836  0.83890722     0.78100
C702        C  0.73796613  0.17922300  0.90221049     0.78200
C703        C  0.81544386  0.25577633  0.90216471     0.78000
C704        C  0.68078827  0.23754842  0.83966472     0.78000
O705        O  0.31294049  0.26259342  0.87755666    -0.71100
O706        O  0.20988292  0.27339456  0.91903937    -0.71400
O707        O  0.26797548  0.21910896  0.92415348    -0.71200
O708        O  0.25524137  0.31659098  0.87217216    -0.71200
O709        O  0.22599822  0.28545642  0.82507150    -0.71200
O710        O  0.24703804  0.18733848  0.87351913    -0.71200
O711        O  0.18555846  0.23788615  0.87215173    -0.71100
O712        O  0.28761828  0.23523944  0.82623806    -0.71300
V713        V  0.26095455  0.26728201  0.89735333     1.35200
V714        V  0.23705649  0.23704521  0.85012696     1.35200
C715        C  0.31769670  0.24712748  0.84481912     0.78100
C716        C  0.18024738  0.25784875  0.90248421     0.78200
C717        C  0.26153279  0.18655199  0.90708702     0.78000
C718        C  0.23701633  0.31769913  0.84042083     0.78000
O719        O  0.28614024  0.76800192  0.82547391    -0.71100
O720        O  0.18621613  0.76261381  0.87605522    -0.71400
O721        O  0.24533346  0.81715118  0.87096634    -0.71200
O722        O  0.22669100  0.71418907  0.83060382    -0.71200
O723        O  0.26118786  0.68890039  0.87712041    -0.71200
O724        O  0.26737549  0.79109937  0.92386650    -0.71200
O725        O  0.21432389  0.73099433  0.92288496    -0.71100
O726        O  0.31479083  0.74878890  0.87822510    -0.71300
V727        V  0.23669123  0.76510122  0.85163018     1.35200
V728        V  0.26393804  0.74048011  0.89965251     1.35200
C729        C  0.31751310  0.76081654  0.84401273     0.78100
C730        C  0.18310983  0.74324556  0.90701737     0.78200
C731        C  0.25888951  0.82159396  0.90461965     0.78000
C732        C  0.24055216  0.68401787  0.84699591     0.78000
O733        O  0.31644138  0.74413349  0.62651928    -0.71100
O734        O  0.21663654  0.72902376  0.57767001    -0.71400
O735        O  0.27401564  0.78572913  0.57671150    -0.71200
O736        O  0.25952161  0.68757186  0.62790139    -0.71200
O737        O  0.22987383  0.71822129  0.67467539    -0.71200
O738        O  0.24489737  0.81607879  0.62391122    -0.71200
O739        O  0.18776575  0.75994517  0.62479375    -0.71100
O740        O  0.28731552  0.77457375  0.67363348    -0.71300
V741        V  0.26601810  0.73719274  0.60303939     1.35200
V742        V  0.23808445  0.76652867  0.64837262     1.35200
C743        C  0.31897654  0.76328968  0.65774473     0.78100
C744        C  0.18525235  0.74121929  0.59338628     0.78200
C745        C  0.26323161  0.81775964  0.59229710     0.78000
C746        C  0.24112629  0.68620840  0.65953789     0.78000
O747        O  0.73763998  0.78994629  0.58299618    -0.71100
O748        O  0.74637621  0.69094338  0.63359312    -0.71400
O749        O  0.69278058  0.74955476  0.63269322    -0.71200
O750        O  0.79102509  0.73112676  0.58397259    -0.71200
O751        O  0.82169427  0.76308126  0.62973109    -0.71200
O752        O  0.72346955  0.77605586  0.68144679    -0.71200
O753        O  0.77989302  0.71935059  0.67951183    -0.71100
O754        O  0.76556117  0.81932844  0.63193175    -0.71300
V755        V  0.74255689  0.74101783  0.60922091     1.35200
V756        V  0.77205597  0.76885739  0.65483079     1.35200
C757        C  0.74893841  0.82150215  0.59944555     0.78100
C758        C  0.76608528  0.68797167  0.66439765     0.78200
C759        C  0.69122291  0.76651152  0.66510601     0.78000
C760        C  0.82303463  0.74341532  0.59875885     0.78000
O761        O  0.68204660  0.25639828  0.62335319    -0.71100
O762        O  0.78048287  0.27294771  0.57228262    -0.71400
O763        O  0.72432262  0.21486385  0.57284994    -0.71200
O764        O  0.73766269  0.31426451  0.62272904    -0.71200
O765        O  0.77031850  0.28571264  0.66871934    -0.71200
O766        O  0.75455743  0.18587520  0.62011171    -0.71200
O767        O  0.81092577  0.24221805  0.61836426    -0.71100
O768        O  0.71310374  0.22853960  0.67064378    -0.71300
V769        V  0.73177960  0.26403485  0.59866004     1.35200
V770        V  0.76151080  0.23624660  0.64366893     1.35200
C771        C  0.68072327  0.23852302  0.65523694     0.78100
C772        C  0.81244123  0.26076676  0.58694016     0.78200
C773        C  0.73631524  0.18340616  0.58841583     0.78000
C774        C  0.75749366  0.31700330  0.65346176     0.78000
C775        C  0.50518184  0.81982279  0.71556826     0.46100
H776        H  0.50790350  0.81774355  0.68386748    -0.02900
C777        C  0.50115530  0.82010960  0.79012490     0.46200
H778        H  0.49815402  0.81965407  0.82170241    -0.02900
C779        C  0.50412107  0.86217177  0.73205517    -0.16600
C780        C  0.46755901  0.79986689  0.73146292    -0.16400
C781        C  0.54051067  0.80034237  0.73540592    -0.16700
C782        C  0.50222943  0.86248964  0.77221294    -0.16700
C783        C  0.46560212  0.79986617  0.77094140    -0.16300
C784        C  0.53777158  0.79812164  0.77489095    -0.16600
C785        C  0.68160683  0.99520645  0.95996918     0.46100
H786        H  0.68249324  0.99479717  0.92807232    -0.02900
C787        C  0.68294435  0.99813997  0.53468931     0.46200
H788        H  0.68513498  0.99930662  0.56649407    -0.02900
C789        C  0.63964606  0.99637797  0.97779543    -0.16600
C790        C  0.70131117  0.95933015  0.97867270    -0.16400
C791        C  0.70276247  0.03183445  0.97626585    -0.16700
C792        C  0.64029753  0.99722682  0.51798721    -0.16700
C793        C  0.70281468  0.96134660  0.51813281    -0.16300
C794        C  0.70319754  0.03352737  0.51554745    -0.16600
C795        C  0.32120111  0.00481249  0.96488613     0.46100
H796        H  0.32203846  0.00635935  0.93296382    -0.02900
C797        C  0.31960102  0.00249714  0.53986113     0.46200
H798        H  0.31800227  0.00194375  0.57175346    -0.02900
C799        C  0.36256369  0.00378128  0.98360757    -0.16600
C800        C  0.30121844  0.04064265  0.98333593    -0.16400
C801        C  0.29958566  0.96807282  0.98075828    -0.16700
C802        C  0.36204837  0.00253191  0.52342407    -0.16700
C803        C  0.29988503  0.03927155  0.52282455    -0.16300
C804        C  0.29941901  0.96684131  0.52043076    -0.16600
C805        C  0.49475588  0.18032359  0.71128333     0.46100
H806        H  0.49389528  0.18217584  0.67937454    -0.02900
C807        C  0.49611322  0.17742474  0.78618349     0.46200
H808        H  0.49722922  0.17633376  0.81804597    -0.02900
C809        C  0.49278885  0.13783577  0.72689176    -0.16600
C810        C  0.53252919  0.19808631  0.72913028    -0.16400
C811        C  0.45990916  0.20121072  0.73072268    -0.16700
C812        C  0.49327735  0.13632024  0.76662245    -0.16700
C813        C  0.53288411  0.19723002  0.76867866    -0.16300
C814        C  0.46097904  0.20065800  0.77034214    -0.16600
C815        C  0.50368066  0.99905483  0.62449211    -0.01800
C816        C  0.49763390  0.00307050  0.87576546    -0.01800
C817        C  0.81999212  0.50046137  0.71153992     0.46100
H818        H  0.81843774  0.50191653  0.67967948    -0.02900
C819        C  0.82095881  0.49540977  0.78620977     0.46200
H820        H  0.82039153  0.49374835  0.81810815    -0.02900
C821        C  0.86243196  0.49844531  0.72824056    -0.16600
C822        C  0.80126036  0.53605600  0.73205230    -0.16400
C823        C  0.79872839  0.46359207  0.72730406    -0.16700
C824        C  0.86284096  0.49583218  0.76820297    -0.16700
C825        C  0.80125339  0.53278580  0.77134223    -0.16300
C826        C  0.79931718  0.46103479  0.76659125    -0.16600
C827        C  0.99989995  0.68017202  0.96328988     0.46100
H828        H  0.99857799  0.68147033  0.93138188    -0.02900
C829        C  0.00201366  0.67931169  0.53799176     0.46200
H830        H  0.00376521  0.68097438  0.56974396    -0.02900
C831        C  0.99936352  0.63785129  0.98004864    -0.16600
C832        C  0.03704557  0.69968254  0.98049118    -0.16400
C833        C  0.96474954  0.70070588  0.98209114    -0.16700
C834        C  0.00022389  0.63711390  0.52021387    -0.16700
C835        C  0.03813065  0.69923787  0.51983218    -0.16300
C836        C  0.96606200  0.70054373  0.52137214    -0.16600
C837        C  0.99840305  0.31745920  0.95842547     0.46100
H838        H  0.99969280  0.31563650  0.92669154    -0.02900
C839        C  0.99783731  0.31664358  0.53321675     0.46200
H840        H  0.99707991  0.31519954  0.56512650    -0.02900
C841        C  0.99834122  0.35967740  0.97636238    -0.16600
C842        C  0.96220233  0.29663950  0.97551634    -0.16400
C843        C  0.03408888  0.29698891  0.97587244    -0.16700
C844        C  0.99809093  0.35896543  0.51666280    -0.16700
C845        C  0.96171072  0.29637442  0.51484999    -0.16300
C846        C  0.03429707  0.29711358  0.51526190    -0.16600
C847        C  0.18019211  0.50457844  0.71292194     0.46100
H848        H  0.18197095  0.50736358  0.68117325    -0.02900
C849        C  0.17963539  0.49966903  0.78750977     0.46200
H850        H  0.18104053  0.49684145  0.81926325    -0.02900
C851        C  0.13764390  0.50256775  0.72964510    -0.16600
C852        C  0.20089238  0.46785387  0.72841119    -0.16400
C853        C  0.19989556  0.53976265  0.73326213    -0.16700
C854        C  0.13738240  0.49970374  0.76984104    -0.16700
C855        C  0.20048029  0.46533758  0.76762648    -0.16300
C856        C  0.19956159  0.53739336  0.77251119    -0.16600
C857        C  0.00028578  0.49669479  0.62254478    -0.01800
C858        C  0.99926904  0.50027260  0.87476237    -0.01800
O859        O  0.25862728  0.31704190  0.62462649    -0.71100
O860        O  0.26687118  0.21573437  0.57749869    -0.71400
O861        O  0.21342526  0.27488537  0.57611976    -0.71200
O862        O  0.31166978  0.25802756  0.62589941    -0.71200
O863        O  0.28033993  0.23400107  0.67527159    -0.71200
O864        O  0.18276315  0.24515802  0.62290045    -0.71200
O865        O  0.23846552  0.18885237  0.62724595    -0.71100
O866        O  0.22441479  0.29067914  0.67108091    -0.71300
V867        V  0.26200432  0.26591627  0.60190158     1.35200
V868        V  0.23213382  0.24027660  0.64825811     1.35200
C869        C  0.23864788  0.32115242  0.65507585     0.78100
C870        C  0.25553985  0.18502372  0.59517115     0.78200
C871        C  0.18132891  0.26313332  0.59115229     0.78000
C872        C  0.31270801  0.24214655  0.65871668     0.78000
C873        C  0.03519458  0.47623225  0.81297115    -0.20700
C874        C  0.03667275  0.49735378  0.84840543    -0.08700
C875        C  0.07431685  0.51162290  0.85983147     0.30200
C876        C  0.10520872  0.51426062  0.83331830    -0.20700
C877        C  0.10232467  0.49702442  0.79643435    -0.08700
C878        C  0.06777191  0.47515779  0.78787440     0.30200
F879        F  0.06551232  0.45209799  0.75589608    -0.19200
H880        H  0.00869200  0.46019626  0.80451068     0.18500
H881        H  0.13163789  0.53000623  0.84233519     0.18500
F882        F  0.08158762  0.52408211  0.89630834    -0.19200
C883        C  0.10630946  0.48592411  0.66571569    -0.20700
C884        C  0.10282503  0.50351537  0.70239121    -0.08700
C885        C  0.06775919  0.52413719  0.71025782     0.30200
C886        C  0.03548040  0.52176966  0.68470350    -0.20700
C887        C  0.03746001  0.50024019  0.64952719    -0.08700
C888        C  0.07537556  0.48662056  0.63891881     0.30200
F889        F  0.08311590  0.47356506  0.60279113    -0.19200
H890        H  0.13333105  0.47158780  0.65703555     0.18500
H891        H  0.00875649  0.53720143  0.69261192     0.18500
F892        F  0.06476104  0.54736765  0.74202279    -0.19200
C893        C  0.18111379  0.40816416  0.69158923    -0.20700
C894        C  0.21138938  0.43381717  0.70388346    -0.08700
C895        C  0.25112011  0.42329531  0.69827367     0.30200
C896        C  0.26028146  0.38696671  0.68103537    -0.20700
C897        C  0.22982626  0.36056452  0.67046105    -0.08700
C898        C  0.19018811  0.37164155  0.67529568     0.30200
F899        F  0.16025110  0.34685503  0.66459935    -0.19200
H900        H  0.15040391  0.41541793  0.69675881     0.18500
H901        H  0.29098034  0.37874365  0.67740259     0.18500
F902        F  0.28081392  0.44746259  0.71076249    -0.19200
C903        C  0.01953965  0.42428647  0.60436758    -0.20700
C904        C  0.99708782  0.45839439  0.59721894    -0.08700
C905        C  0.97031623  0.45644191  0.56557015     0.30200
C906        C  0.97081934  0.42459340  0.53942947    -0.20700
C907        C  0.99748413  0.39343283  0.54409483    -0.08700
C908        C  0.02110024  0.39324581  0.57764145     0.30200
F909        F  0.04673201  0.36345040  0.58452799    -0.19200
H910        H  0.03704565  0.42163283  0.63024119     0.18500
H911        H  0.95051654  0.42447181  0.51527260     0.18500
F912        F  0.94463659  0.48624826  0.55882505    -0.19200
C913        C  0.98980311  0.42588955  0.88778828    -0.20700
C914        C  0.00221725  0.46322125  0.90137381    -0.08700
C915        C  0.01984434  0.46416143  0.93862091     0.30200
C916        C  0.01961194  0.43051339  0.96217929    -0.20700
C917        C  0.00008718  0.39553350  0.95069917    -0.08700
C918        C  0.98501295  0.39400584  0.91270355     0.30200
F919        F  0.96348286  0.36279767  0.89941487    -0.19200
H920        H  0.98024171  0.42199197  0.85828566     0.18500
H921        H  0.03486765  0.43217598  0.98950610     0.18500
F922        F  0.03810423  0.49711020  0.95254916    -0.19200
C923        C  0.07313559  0.25745119  0.56219835    -0.20700
C924        C  0.07075343  0.28982920  0.53740420    -0.08700
C925        C  0.10424933  0.31398900  0.53143446     0.30200
C926        C  0.14019343  0.30463123  0.54857048    -0.20700
C927        C  0.14310823  0.27166141  0.57272591    -0.08700
C928        C  0.10912301  0.24836884  0.57994212     0.30200
F929        F  0.11097019  0.21620707  0.60309533    -0.19200
H930        H  0.04745506  0.23866048  0.56690534     0.18500
H931        H  0.16569121  0.32352552  0.54332192     0.18500
F932        F  0.10215353  0.34656326  0.00877639    -0.19200
C933        C  0.99037147  0.57095205  0.60896692    -0.20700
C934        C  0.00347326  0.53389191  0.59590740    -0.08700
C935        C  0.02157175  0.53322314  0.55887569     0.30200
C936        C  0.02093878  0.56655325  0.53483839    -0.20700
C937        C  0.00132605  0.60122915  0.54593654    -0.08700
C938        C  0.98601280  0.60271021  0.58380468     0.30200
F939        F  0.96498081  0.63397734  0.59676643    -0.19200
H940        H  0.98030921  0.57474990  0.63828239     0.18500
H941        H  0.03618334  0.56502614  0.50752952     0.18500
F942        F  0.04060954  0.50078610  0.54560987    -0.19200
C943        C  0.97037357  0.57235648  0.95742293    -0.20700
C944        C  0.99778110  0.60339967  0.95279138    -0.08700
C945        C  0.02129780  0.60365671  0.91929183     0.30200
C946        C  0.01888121  0.57285689  0.89247079    -0.20700
C947        C  0.99600931  0.53866297  0.89971642    -0.08700
C948        C  0.96913814  0.54058090  0.93117461     0.30200
F949        F  0.94277041  0.51082189  0.93761858    -0.19200
H950        H  0.95011201  0.57252635  0.98156986     0.18500
H951        H  0.03633920  0.57564294  0.86658823     0.18500
F952        F  0.04777558  0.63323071  0.91261459    -0.19200
C953        C  0.92884737  0.52395063  0.78933060    -0.20700
C954        C  0.89821974  0.49612912  0.79408198    -0.08700
C955        C  0.89823898  0.47274401  0.82752151     0.30200
C956        C  0.92808454  0.47690543  0.85507371    -0.20700
C957        C  0.96151043  0.50124990  0.84857546    -0.08700
C958        C  0.95984379  0.52684199  0.81622884     0.30200
F959        F  0.98878850  0.55415782  0.80999475    -0.19200
H960        H  0.92844975  0.54402596  0.76512243     0.18500
H961        H  0.92485362  0.46010737  0.88126168     0.18500
F962        F  0.86944272  0.44530058  0.83380457    -0.19200
C963        C  0.92847150  0.47101783  0.70689554    -0.20700
C964        C  0.89750182  0.49787642  0.70170066    -0.08700
C965        C  0.89781726  0.52118899  0.66816333     0.30200
C966        C  0.92841644  0.51816692  0.64124118    -0.20700
C967        C  0.96208916  0.49486073  0.64829344    -0.08700
C968        C  0.96006207  0.46917397  0.68058612     0.30200
F969        F  0.98926510  0.44280561  0.68740443    -0.19200
H970        H  0.92807795  0.45105160  0.73118877     0.18500
H971        H  0.92553124  0.53503241  0.61509102     0.18500
F972        F  0.86893431  0.54793003  0.66144746    -0.19200
C973        C  0.52991502  0.08214756  0.79924418    -0.20700
C974        C  0.49393800  0.09983062  0.79009541    -0.08700
C975        C  0.45921597  0.08497684  0.80664722     0.30200
C976        C  0.46077494  0.05359242  0.83252428    -0.20700
C977        C  0.49722778  0.03821939  0.84613666    -0.08700
C978        C  0.53182563  0.05186664  0.82666861     0.30200
F979        F  0.56784462  0.03612739  0.83297726    -0.19200
H980        H  0.55695176  0.09256681  0.78573576     0.18500
H981        H  0.43276724  0.04150238  0.84220641     0.18500
F982        F  0.42346786  0.10027736  0.79725758    -0.19200
C983        C  0.51863417  0.10496789  0.66773377    -0.20700
C984        C  0.49369647  0.10333287  0.69998285    -0.08700
C985        C  0.46802921  0.07068575  0.70355119     0.30200
C986        C  0.47140881  0.03833925  0.67865406    -0.20700
C987        C  0.49962024  0.03779451  0.64855987    -0.08700
C988        C  0.51999610  0.07383739  0.64119747     0.30200
F989        F  0.54035844  0.08029164  0.60820683    -0.19200
H990        H  0.53693848  0.13085665  0.66253290     0.18500
H991        H  0.45202321  0.01312807  0.68326774     0.18500
F992        F  0.43818123  0.07061719  0.72944758    -0.19200
C993        C  0.38846745  0.18926974  0.71870474    -0.20700
C994        C  0.42332264  0.20983667  0.70916732    -0.08700
C995        C  0.42216606  0.23992974  0.68159365     0.30200
C996        C  0.38598148  0.25057744  0.66518098    -0.20700
C997        C  0.35070561  0.23143620  0.67637920    -0.08700
C998        C  0.35235980  0.20023256  0.70295002     0.30200
F999        F  0.31924641  0.17984322  0.71330731    -0.19200
H1000       H  0.38915078  0.16539765  0.73941958     0.18500
H1001       H  0.38541339  0.27425424  0.64428336     0.18500
F1002       F  0.45559107  0.25998770  0.67178578    -0.19200
C1003       C  0.43094316  0.02539645  0.54155557    -0.20700
C1004       C  0.39773981  0.00151861  0.54911114    -0.08700
C1005       C  0.39778933  0.97875551  0.58298288     0.30200
C1006       C  0.43041827  0.97945128  0.60790018    -0.20700
C1007       C  0.46572211  0.99995730  0.59845302    -0.08700
C1008       C  0.46428163  0.02472889  0.56550511     0.30200
F1009       F  0.49530593  0.04839509  0.55588123    -0.19200
H1010       H  0.43107044  0.04537548  0.51735408     0.18500
H1011       H  0.42753941  0.96359067  0.63467969     0.18500
F1012       F  0.36658123  0.95505690  0.59206967    -0.19200
C1013       C  0.40947209  0.03884042  0.94059309    -0.20700
C1014       C  0.39832340  0.00401560  0.95909008    -0.08700
C1015       C  0.41953371  0.96949257  0.95190900     0.30200
C1016       C  0.45030480  0.96950150  0.92483890    -0.20700
C1017       C  0.46158405  0.00413797  0.90452610    -0.12700
C1018       C  0.44159822  0.03962191  0.91533798     0.30200
F1019       F  0.45441586  0.07597643  0.90418579    -0.19200
H1020       H  0.39402014  0.06605839  0.94690261     0.18500
H1021       H  0.46503215  0.94188685  0.92013039     0.18500
F1022       F  0.40979478  0.93545285  0.97035761    -0.19200
C1023       C  0.24830848  0.08961486  0.53879843    -0.20700
C1024       C  0.28538704  0.07274837  0.54671479    -0.08700
C1025       C  0.31089116  0.09165680  0.57312659     0.30200
C1026       C  0.30035458  0.12790540  0.58949294    -0.20700
C1027       C  0.26431136  0.14560584  0.57990779    -0.08700
C1028       C  0.23788027  0.12596166  0.55512655     0.30200
F1029       F  0.20275072  0.14258545  0.54574546    -0.19200
H1030       H  0.22830227  0.07549485  0.51847021     0.18500
H1031       H  0.32091414  0.14286864  0.60873877     0.18500
F1032       F  0.34717799  0.07671054  0.58086263    -0.19200
C1033       C  0.60859542  0.01501541  0.58104931    -0.20700
C1034       C  0.60549909  0.99615131  0.54494805    -0.08700
C1035       C  0.57145722  0.97292947  0.53786481     0.30200
C1036       C  0.53967508  0.97327714  0.56387701    -0.20700
C1037       C  0.54115421  0.99574644  0.59841373    -0.08700
C1038       C  0.57839085  0.01218762  0.60841504     0.30200
F1039       F  0.58561338  0.02720247  0.64399110    -0.19200
H1040       H  0.63468443  0.03206793  0.58871473     0.18500
H1041       H  0.51353838  0.95600616  0.55668760     0.18500
F1042       F  0.56913445  0.94888293  0.00657415    -0.19200
C1043       C  0.57303424  0.02512716  0.96029655    -0.20700
C1044       C  0.60405962  0.99929298  0.95192381    -0.08700
C1045       C  0.60281991  0.97916956  0.91641535     0.30200
C1046       C  0.57131370  0.98436940  0.89083870    -0.20700
C1047       C  0.53679437  0.00540607  0.90115510    -0.08700
C1048       C  0.54003557  0.02818179  0.93577921     0.30200
F1049       F  0.51228927  0.05449822  0.94641868    -0.19200
H1050       H  0.57428018  0.04330277  0.98601347     0.18500
H1051       H  0.57366096  0.96998923  0.86311753     0.18500
F1052       F  0.63132892  0.95302313  0.90650496    -0.19200
C1053       C  0.51768305  0.89763533  0.83393838    -0.20700
C1054       C  0.49872561  0.89798783  0.79813217    -0.08700
C1055       C  0.47319301  0.92956138  0.79064673     0.30200
C1056       C  0.47159444  0.96203116  0.81603658    -0.20700
C1057       C  0.49419309  0.96375923  0.85071859    -0.08700
C1058       C  0.51273604  0.92777010  0.86098835     0.30200
F1059       F  0.52688960  0.92114826  0.89696254    -0.19200
H1060       H  0.53658837  0.87352202  0.84153493     0.18500
H1061       H  0.45199531  0.98539993  0.80787879     0.18500
F1062       F  0.44906865  0.92886219  0.75938379    -0.19200
C1063       C  0.52537704  0.93228435  0.71418870    -0.20700
C1064       C  0.50502992  0.89711268  0.70493578    -0.08700
C1065       C  0.48774215  0.89440277  0.66785182     0.30200
C1066       C  0.49113636  0.92542479  0.64146986    -0.20700
C1067       C  0.50626960  0.96272728  0.65242697    -0.08700
C1068       C  0.52554907  0.96474743  0.68893530     0.30200
F1069       F  0.54485007  0.99797610  0.70073460    -0.19200
H1070       H  0.54113857  0.93493080  0.74122469     0.18500
H1071       H  0.47943219  0.92069765  0.61280899     0.18500
F1072       F  0.46573782  0.86251426  0.65698974    -0.19200
C1073       C  0.81668074  0.40547068  0.68751693    -0.20700
C1074       C  0.78703184  0.42960202  0.70280297    -0.08700
C1075       C  0.74721595  0.41747494  0.70015320     0.30200
C1076       C  0.73738771  0.38107812  0.68309048    -0.20700
C1077       C  0.76731876  0.35594675  0.66992056    -0.08700
C1078       C  0.80703201  0.36850062  0.67188961     0.30200
F1079       F  0.83646487  0.34482940  0.65896596    -0.19200
H1080       H  0.84752983  0.41428126  0.68982029     0.18500
H1081       H  0.70662774  0.37184875  0.68143104     0.18500
F1082       F  0.71813427  0.44030200  0.71510287    -0.19200
C1083       C  0.60751988  0.24831290  0.66362864    -0.20700
C1084       C  0.64227421  0.22779236  0.67311567    -0.08700
C1085       C  0.63956487  0.19541646  0.69834731     0.30200
C1086       C  0.60313664  0.18438543  0.71406388    -0.20700
C1087       C  0.56887659  0.20614524  0.70623640    -0.08700
C1088       C  0.57108501  0.23777687  0.68028704     0.30200
F1089       F  0.53856685  0.25959550  0.67255149    -0.19200
H1090       H  0.60874233  0.27310245  0.64400610     0.18500
H1091       H  0.60187259  0.15963783  0.73376847     0.18500
F1092       F  0.67202829  0.17409268  0.70767706    -0.19200
C1093       C  0.89995475  0.31738576  0.54738673    -0.20700
C1094       C  0.92542577  0.28671626  0.53679862    -0.08700
C1095       C  0.91369286  0.24728366  0.54276032     0.30200
C1096       C  0.87686403  0.23877083  0.55947571    -0.20700
C1097       C  0.85087337  0.26947888  0.56890377    -0.08700
C1098       C  0.86263201  0.30887700  0.56273755     0.30200
F1099       F  0.83820917  0.33908736  0.57208361    -0.19200
H1100       H  0.90847637  0.34790982  0.54241314     0.18500
H1101       H  0.86820380  0.20825429  0.56424375     0.18500
F1102       F  0.93762050  0.21721697  0.03190794    -0.19200
C1103       C  0.75793232  0.11620655  0.56757765    -0.20700
C1104       C  0.72802308  0.14464018  0.57063734    -0.08700
C1105       C  0.68972341  0.13547854  0.55730855     0.30200
C1106       C  0.68158793  0.09844838  0.54110498    -0.20700
C1107       C  0.71174118  0.07057503  0.53682421    -0.08700
C1108       C  0.75002365  0.07953991  0.55012163     0.30200
F1109       F  0.77971699  0.05316103  0.54562615    -0.19200
H1110       H  0.78758728  0.12283907  0.57779015     0.18500
H1111       H  0.65191286  0.09178557  0.53093995     0.18500
F1112       F  0.66003034  0.16206428  0.56066335    -0.19200
C1113       C  0.61768654  0.75800513  0.66827119    -0.20700
C1114       C  0.65252036  0.77601566  0.68252829    -0.08700
C1115       C  0.64957983  0.80439443  0.71210091     0.30200
C1116       C  0.61265695  0.81389633  0.72732116    -0.20700
C1117       C  0.57819489  0.79443825  0.71434730    -0.08700
C1118       C  0.58076769  0.76705303  0.68408022     0.30200
F1119       F  0.54800105  0.74747793  0.67136527    -0.19200
H1120       H  0.61909523  0.73626932  0.64534249     0.18500
H1121       H  0.61103153  0.83539395  0.75047098     0.18500
F1122       F  0.68223033  0.82307505  0.72633875    -0.19200
C1123       C  0.80745701  0.64437574  0.70556804    -0.20700
C1124       C  0.77442711  0.64872643  0.68139898    -0.08700
C1125       C  0.75123919  0.61501476  0.67234415     0.30200
C1126       C  0.76064731  0.57801618  0.68789472    -0.20700
C1127       C  0.79328163  0.57409991  0.71244752    -0.08700
C1128       C  0.81707675  0.60744689  0.72060262     0.30200
F1129       F  0.84972690  0.60421537  0.74318055    -0.19200
H1130       H  0.82632688  0.66953061  0.71237078     0.18500
H1131       H  0.74196852  0.55260897  0.68151582     0.18500
F1132       F  0.71899909  0.61793582  0.64921823    -0.19200
C1133       C  0.70627182  0.87999599  0.59292330    -0.20700
C1134       C  0.74060998  0.85994198  0.58204758    -0.08700
C1135       C  0.76466331  0.87535018  0.55278112     0.30200
C1136       C  0.75353517  0.90985463  0.53364761    -0.20700
C1137       C  0.71780126  0.92879623  0.54286158    -0.08700
C1138       C  0.69477629  0.91412444  0.57349620     0.30200
F1139       F  0.65975562  0.93091247  0.58292269    -0.19200
H1140       H  0.68741001  0.86816994  0.61541492     0.18500
H1141       H  0.77204732  0.92098641  0.51059433     0.18500
F1142       F  0.79820249  0.85644438  0.54207236    -0.19200
C1143       C  0.90262371  0.68281974  0.55244280    -0.20700
C1144       C  0.93180484  0.71144730  0.54516333    -0.08700
C1145       C  0.92602787  0.75071155  0.55692147     0.30200
C1146       C  0.89085758  0.76121192  0.57551619    -0.20700
C1147       C  0.86090148  0.73278571  0.58116481    -0.08700
C1148       C  0.86711048  0.69345203  0.56973005     0.30200
F1149       F  0.83882878  0.66528180  0.57547239    -0.19200
H1150       H  0.90682159  0.65245963  0.54335747     0.18500
H1151       H  0.88640073  0.79163609  0.58424022     0.18500
F1152       F  0.95388406  0.77884752  0.54951379    -0.19200
C1153       C  0.25825995  0.61708093  0.67829674    -0.20700
C1154       C  0.23102290  0.64822194  0.67759978    -0.08700
C1155       C  0.19315695  0.64261330  0.69352332     0.30200
C1156       C  0.18293216  0.60660368  0.71025383    -0.20700
C1157       C  0.21061403  0.57618372  0.71248026    -0.08700
C1158       C  0.24826704  0.58126958  0.69614079     0.30200
F1159       F  0.27530856  0.55188710  0.69791692    -0.19200
H1160       H  0.28743566  0.62085167  0.66583755     0.18500
H1161       H  0.15346475  0.60255143  0.72193314     0.18500
F1162       F  0.16568963  0.67163800  0.69202073    -0.19200
C1163       C  0.39199589  0.75223213  0.66489184    -0.20700
C1164       C  0.35793369  0.77385302  0.67444969    -0.08700
C1165       C  0.36168031  0.80681776  0.69906597     0.30200
C1166       C  0.39835985  0.81689733  0.71478455    -0.20700
C1167       C  0.43171513  0.79361228  0.70749731    -0.08700
C1168       C  0.42870409  0.76188483  0.68152559     0.30200
F1169       F  0.46060560  0.73905592  0.67396175    -0.19200
H1170       H  0.38994319  0.72712410  0.64551678     0.18500
H1171       H  0.40041273  0.84183330  0.73440991     0.18500
F1172       F  0.32992493  0.82935204  0.70811538    -0.19200
C1173       C  0.12837874  0.69553457  0.58443724    -0.20700
C1174       C  0.14643954  0.73208096  0.57656466    -0.08700
C1175       C  0.12720291  0.75930038  0.55287031     0.30200
C1176       C  0.09076768  0.74934508  0.53609556    -0.20700
C1177       C  0.07328703  0.71206914  0.54263273    -0.08700
C1178       C  0.09192992  0.68555518  0.56778134     0.30200
F1179       F  0.07619042  0.64916962  0.57449752    -0.19200
H1180       H  0.14292566  0.67444473  0.60299097     0.18500
H1181       H  0.07668040  0.77027162  0.01709927     0.18500
F1182       F  0.14415733  0.79494904  0.54520085    -0.19200
C1183       C  0.25084578  0.89003284  0.58410054    -0.20700
C1184       C  0.27311402  0.85632002  0.57489620    -0.08700
C1185       C  0.30605938  0.86025462  0.55041710     0.30200
C1186       C  0.31535309  0.89682391  0.53427057    -0.20700
C1187       C  0.29186545  0.92992317  0.54191346    -0.08700
C1188       C  0.26015198  0.92669146  0.56769271     0.30200
F1189       F  0.23731518  0.95849867  0.57565164    -0.19200
H1190       H  0.22576714  0.88782076  0.60340889     0.18500
H1191       H  0.34044695  0.89923943  0.51497054     0.18500
F1192       F  0.32970233  0.82899316  0.54256161    -0.19200
C1193       C  0.37822596  0.80146040  0.83967165    -0.20700
C1194       C  0.35646850  0.76844692  0.82714271    -0.08700
C1195       C  0.37197551  0.74373676  0.79857107     0.30200
C1196       C  0.40892047  0.75247515  0.78237795    -0.20700
C1197       C  0.42982043  0.78709025  0.79304103    -0.08700
C1198       C  0.41426895  0.81122917  0.82242338     0.30200
F1199       F  0.43233960  0.84557223  0.83297892    -0.19200
H1200       H  0.36643632  0.82064929  0.86183198     0.18500
H1201       H  0.42053914  0.73300471  0.76039627     0.18500
F1202       F  0.35129385  0.71148529  0.78621933    -0.19200
C1203       C  0.19103761  0.63620305  0.82172696    -0.20700
C1204       C  0.23047089  0.64430910  0.83207607    -0.08700
C1205       C  0.25918971  0.61494946  0.82681031     0.30200
C1206       C  0.24879787  0.57899731  0.80892437    -0.20700
C1207       C  0.20952292  0.57164897  0.79746593    -0.08700
C1208       C  0.18046896  0.59996547  0.80518442     0.30200
F1209       F  0.14222243  0.59343924  0.79470724    -0.19200
H1210       H  0.16839026  0.65826005  0.82612008     0.18500
H1211       H  0.27152083  0.55746239  0.80284623     0.18500
F1212       F  0.29748165  0.62193322  0.83681899    -0.19200
C1213       C  0.29898252  0.88342647  0.90819296    -0.20700
C1214       C  0.26603807  0.86139758  0.92052938    -0.08700
C1215       C  0.24126785  0.87704522  0.94897956     0.30200
C1216       C  0.25045731  0.91358335  0.96600486    -0.20700
C1217       C  0.28543653  0.93426549  0.95617382    -0.08700
C1218       C  0.30885035  0.91946472  0.92592139     0.30200
F1219       F  0.34258360  0.93827740  0.91496774    -0.19200
H1220       H  0.31808916  0.87183464  0.88590044     0.18500
H1221       H  0.23119743  0.92484990  0.48832088     0.18500
F1222       F  0.20870241  0.85663605  0.96078791    -0.19200
C1223       C  0.14180091  0.69743245  0.94511756    -0.20700
C1224       C  0.14436892  0.73232507  0.92347945    -0.08700
C1225       C  0.11001662  0.75477767  0.91744426     0.30200
C1226       C  0.07414737  0.74315936  0.93454124    -0.20700
C1227       C  0.07239894  0.70901422  0.95726724    -0.08700
C1228       C  0.10616210  0.68562829  0.96150148     0.30200
F1229       F  0.10479714  0.65179927  0.48244603    -0.19200
H1230       H  0.16754569  0.67906232  0.94935162     0.18500
H1231       H  0.04821271  0.76146501  0.93130637     0.18500
F1232       F  0.11146003  0.78854448  0.89649185    -0.19200
C1233       C  0.18245205  0.39691316  0.78641286    -0.20700
C1234       C  0.20955732  0.42847560  0.78821327    -0.08700
C1235       C  0.24543206  0.42401199  0.80794164     0.30200
C1236       C  0.25428715  0.38785036  0.82525639    -0.20700
C1237       C  0.22772171  0.35573562  0.82230772    -0.08700
C1238       C  0.19156706  0.36060745  0.80288920     0.30200
F1239       F  0.16464278  0.33060910  0.80067112    -0.19200
H1240       H  0.15439281  0.40033891  0.77169974     0.18500
H1241       H  0.28218538  0.38464528  0.84028967     0.18500
F1242       F  0.27203986  0.45428867  0.80977336    -0.19200
C1243       C  0.37831990  0.20750292  0.84393245    -0.20700
C1244       C  0.35749639  0.24002067  0.83005078    -0.08700
C1245       C  0.37397789  0.26343627  0.80094624     0.30200
C1246       C  0.40997155  0.25264357  0.78423665    -0.20700
C1247       C  0.42888409  0.21734689  0.79507273    -0.08700
C1248       C  0.41379447  0.19618022  0.82677272     0.30200
F1249       F  0.43165459  0.16327405  0.84004070    -0.19200
H1250       H  0.36605183  0.18967594  0.86697062     0.18500
H1251       H  0.42188620  0.27063172  0.76120224     0.18500
F1252       F  0.35472035  0.29582213  0.78793454    -0.19200
C1253       C  0.11968797  0.23658298  0.93797149    -0.20700
C1254       C  0.14036960  0.26541531  0.91702545    -0.08700
C1255       C  0.12389109  0.30299116  0.91202773     0.30200
C1256       C  0.08770757  0.31212612  0.92908764    -0.20700
C1257       C  0.06817111  0.28423704  0.95219519    -0.08700
C1258       C  0.08374435  0.24596897  0.95568380     0.30200
F1259       F  0.06474891  0.21818407  0.47710371    -0.19200
H1260       H  0.13211423  0.20744364  0.94182137     0.18500
H1261       H  0.07612305  0.34174453  0.92620313     0.18500
F1262       F  0.14351779  0.33120164  0.89166285    -0.19200
C1263       C  0.25395548  0.11295127  0.91403739    -0.20700
C1264       C  0.27212162  0.14874458  0.92552968    -0.08700
C1265       C  0.30166552  0.14797848  0.95409319     0.30200
C1266       C  0.31214425  0.11238105  0.97116856    -0.20700
C1267       C  0.29257840  0.07701729  0.96122702    -0.08700
C1268       C  0.26392703  0.07727568  0.93195118     0.30200
F1269       F  0.24472157  0.04340255  0.92169651    -0.19200
H1270       H  0.23143687  0.11274587  0.89181291     0.18500
H1271       H  0.33510582  0.11251058  0.99297206     0.18500
F1272       F  0.32093047  0.18153826  0.96523666    -0.19200
C1273       C  0.62055694  0.19622123  0.83634208    -0.20700
C1274       C  0.64156767  0.22958957  0.82378319    -0.08700
C1275       C  0.62437285  0.25533433  0.79731009     0.30200
C1276       C  0.58705333  0.24649056  0.78207984    -0.20700
C1277       C  0.56728383  0.21111110  0.79200104    -0.08700
C1278       C  0.58357597  0.18696211  0.82069816     0.30200
F1279       F  0.56505993  0.15339114  0.83229572    -0.19200
H1280       H  0.63337864  0.17668288  0.85750532     0.18500
H1281       H  0.57445936  0.26622225  0.76096311     0.18500
F1282       F  0.64400402  0.28837873  0.78564569    -0.19200
C1283       C  0.80410467  0.35584170  0.80140438    -0.20700
C1284       C  0.76834276  0.35177466  0.82159219    -0.08700
C1285       C  0.74344874  0.38472163  0.82547074     0.30200
C1286       C  0.75382765  0.42074188  0.80810208    -0.20700
C1287       C  0.78929176  0.42424875  0.78739323    -0.08700
C1288       C  0.81479713  0.39185092  0.78494482     0.30200
F1289       F  0.85017791  0.39514628  0.76666826    -0.19200
H1290       H  0.82417978  0.33116174  0.79886503     0.18500
H1291       H  0.73399979  0.44564884  0.81022575     0.18500
F1292       F  0.70869412  0.38173210  0.84487726    -0.19200
C1293       C  0.68145527  0.09478248  0.94710555    -0.20700
C1294       C  0.71136531  0.06692405  0.95249200    -0.08700
C1295       C  0.74989281  0.07514897  0.93952706     0.30200
C1296       C  0.75847917  0.11154895  0.92214199    -0.20700
C1297       C  0.72897154  0.14034630  0.91890104    -0.08700
C1298       C  0.69027155  0.13154092  0.93106204     0.30200
F1299       F  0.66100735  0.15849983  0.92734015    -0.19200
H1300       H  0.65161212  0.08865599  0.95700563     0.18500
H1301       H  0.78837232  0.11784211  0.91250916     0.18500
F1302       F  0.77923593  0.04853208  0.94472871    -0.19200
C1303       C  0.86061219  0.30421363  0.93263473    -0.20700
C1304       C  0.85422942  0.26569362  0.91874119    -0.08700
C1305       C  0.88483109  0.23791099  0.92083774     0.30200
C1306       C  0.92094979  0.24843760  0.93808711    -0.20700
C1307       C  0.92684919  0.28684576  0.95245657    -0.08700
C1308       C  0.89680286  0.31490965  0.94896209     0.30200
F1309       F  0.90205811  0.35223815  0.46269026    -0.19200
H1310       H  0.83746049  0.32610326  0.93075329     0.18500
H1311       H  0.94385111  0.22646531  0.94124150     0.18500
F1312       F  0.87909533  0.20032902  0.90799789    -0.19200
C1313       C  0.80186330  0.61607853  0.84381870    -0.20700
C1314       C  0.76407500  0.63179053  0.83825163    -0.08700
C1315       C  0.73704714  0.61257494  0.81376413     0.30200
C1316       C  0.74864710  0.57895394  0.79335422    -0.20700
C1317       C  0.78717924  0.56427103  0.79743883    -0.08700
C1318       C  0.81333912  0.58222793  0.82381736     0.30200
F1319       F  0.85091717  0.56901677  0.82795151    -0.19200
H1320       H  0.82303542  0.63107009  0.86240654     0.18500
H1321       H  0.72815472  0.56521398  0.77323640     0.18500
F1322       F  0.70035362  0.62754525  0.80810564    -0.19200
C1323       C  0.61147743  0.77490874  0.85559622    -0.20700
C1324       C  0.63774911  0.75045418  0.83580554    -0.08700
C1325       C  0.62649556  0.73464162  0.80016403     0.30200
C1326       C  0.59079762  0.74610320  0.78333304    -0.20700
C1327       C  0.56793042  0.77682885  0.79953537    -0.08700
C1328       C  0.57680086  0.78793593  0.83789544     0.30200
F1329       F  0.55297418  0.81137935  0.85887483    -0.19200
H1330       H  0.61890674  0.78578208  0.88412205     0.18500
H1331       H  0.58245569  0.73249991  0.75629133     0.18500
F1332       F  0.65026465  0.70880883  0.78136499    -0.19200
C1333       C  0.88412058  0.75357253  0.92688221    -0.20700
C1334       C  0.85361294  0.72502956  0.92798761    -0.08700
C1335       C  0.86123505  0.68772575  0.94397516     0.30200
C1336       C  0.89829065  0.67957933  0.95953835    -0.20700
C1337       C  0.92794892  0.70876229  0.96055595    -0.08700
C1338       C  0.92108010  0.74564799  0.94355699     0.30200
F1339       F  0.94971323  0.77407152  0.94388004    -0.19200
H1340       H  0.87890828  0.78228260  0.91422946     0.18500
H1341       H  0.90362057  0.65065906  0.47168882     0.18500
F1342       F  0.83294588  0.65892132  0.94411258    -0.19200
C1343       C  0.73793265  0.91866828  0.93008631    -0.20700
C1344       C  0.70764057  0.92186443  0.95742573    -0.08700
C1345       C  0.68514634  0.88817153  0.96709465     0.30200
C1346       C  0.69475453  0.85135511  0.95183603    -0.20700
C1347       C  0.72609827  0.84755801  0.92566824    -0.08700
C1348       C  0.74706215  0.88172255  0.91404011     0.30200
F1349       F  0.77726530  0.87919292  0.88843000    -0.19200
H1350       H  0.75533485  0.94447304  0.92225927     0.18500
H1351       H  0.67743600  0.82572514  0.96036384     0.18500
F1352       F  0.65436649  0.89080818  0.49211471    -0.19200
loop_ 
_geom_bond_atom_site_label_1 
_geom_bond_atom_site_label_2 
_geom_bond_distance 
_geom_bond_site_symmetry_2 
_ccdc_geom_bond_type 
O1            V9   1.895       .  S
O1           C11   1.264       .  A
O2            V9   1.895       .  S
O2           C12   1.262       .  A
O3            V9   1.901       .  S
O3           C13   1.263       .  A
O4            V9   1.898       .  S
O4           C14   1.266       .  A
O5           V10   1.900       .  S
O5           C14   1.263       .  A
O6           V10   1.891       .  S
O6           C13   1.262       .  A
O7           V10   1.904       .  S
O7           C12   1.266       .  A
O8           V10   1.906       .  S
O8           C11   1.265       .  A
V9           V10   2.087       .  T
C11         C658   1.474       .  S
C12         C648   1.467       .  S
C13         C638   1.458       .  S
C14         C671   1.477       .  S
O15          V23   1.904       .  S
O15          C25   1.265       .  A
O16          V23   1.902       .  S
O16          C26   1.266       .  A
O17          V23   1.889       .  S
O17          C27   1.262       .  A
O18          V23   1.886       .  S
O18          C28   1.259       .  A
O19          V24   1.903       .  S
O19          C28   1.265       .  A
O20          V24   1.901       .  S
O20          C27   1.264       .  A
O21          V24   1.896       .  S
O21          C26   1.262       .  A
O22          V24   1.893       .  S
O22          C25   1.264       .  A
V23          V24   2.090       .  T
C25         C608   1.474       .  S
C26         C621   1.468       .  S
C27         C628   1.466       .  S
C28         C598   1.457       .  S
O29          V37   1.894       .  S
O29          C39   1.261       .  A
O30          V37   1.895       .  S
O30          C40   1.263       .  A
O31          V37   1.896       .  S
O31          C41   1.265       .  A
O32          V37   1.897       .  S
O32          C42   1.263       .  A
O33          V38   1.897       .  S
O33          C42   1.264       .  A
O34          V38   1.902       .  S
O34          C41   1.265       .  A
O35          V38   1.901       .  S
O35          C40   1.263       .  A
O36          V38   1.901       .  S
O36          C39   1.264       .  A
V37          V38   2.087       .  T
C39         C568   1.461       .  S
C40         C578   1.463       .  S
C41         C588   1.479       .  S
C42         C561   1.470       .  S
O43          V51   1.904       .  S
O43          C53   1.265       .  A
O44          V51   1.906       .  S
O44          C54   1.265       .  A
O45          V51   1.901       .  S
O45          C55   1.263       .  A
O46          V51   1.895       .  S
O46          C56   1.264       .  A
O47          V52   1.910       .  S
O47          C56   1.266       .  A
O48          V52   1.907       .  S
O48          C55   1.266       .  A
O49          V52   1.886       .  S
O49          C54   1.263       .  A
O50          V52   1.891       .  S
O50          C53   1.261       .  A
V51          V52   2.084       .  T
C53         C518   1.462       .  S
C54         C548   1.473       .  S
C55         C538   1.471       .  S
C56         C528   1.474       .  S
O57          V65   1.899       .  S
O57          C67   1.264       .  A
O58          V65   1.903       .  S
O58          C68   1.264       .  A
O59          V65   1.899       .  S
O59          C69   1.266       .  A
O60          V65   1.901       .  S
O60          C70   1.264       .  A
O61          V66   1.893       .  S
O61          C70   1.263       .  A
O62          V66   1.894       .  S
O62          C69   1.262       .  A
O63          V66   1.896       .  S
O63          C68   1.262       .  A
O64          V66   1.896       .  S
O64          C67   1.265       .  A
V65          V66   2.088       .  T
C67         C488   1.477       .  S
C68         C498   1.464       .  S
C69         C508   1.475       .  S
C70         C478   1.469       .  S
O71          V79   1.900       .  S
O71          C81   1.264       .  A
O72          V79   1.901       .  S
O72          C82   1.264       .  A
O73          V79   1.893       .  S
O73          C83   1.263       .  A
O74          V79   1.890       .  S
O74          C84   1.262       .  A
O75          V80   1.901       .  S
O75          C84   1.264       .  A
O76          V80   1.901       .  S
O76          C83   1.266       .  A
O77          V80   1.904       .  S
O77          C82   1.267       .  A
O78          V80   1.900       .  S
O78          C81   1.263       .  A
V79          V80   2.087       .  T
C81         C458   1.465       .  S
C82         C448   1.484       .  S
C83         C438   1.478       .  S
C84         C471   1.465       .  S
O85          V93   1.902       .  S
O85          C95   1.264       .  A
O86          V93   1.906       .  S
O86          C96   1.266       .  A
O87          V93   1.900       .  S
O87          C97   1.265       .  A
O88          V93   1.899       .  S
O88          C98   1.262       .  A
O89          V94   1.903       .  S
O89          C98   1.265       .  A
O90          V94   1.899       .  S
O90          C97   1.263       .  A
O91          V94   1.896       .  S
O91          C96   1.262       .  A
O92          V94   1.901       .  S
O92          C95   1.266       .  A
V93          V94   2.088       .  T
C95         C408   1.482       .  S
C96         C421   1.470       .  S
C97         C428   1.471       .  S
C98         C401   1.468       .  S
C99         H100   1.107       .  S
C99         C105   1.533       .  S
C99         C104   1.537       .  S
C99         C103   1.541       .  S
C101        H102   1.102       .  S
C101        C107   1.527       .  S
C101        C106   1.565       .  S
C101        C108   1.542       .  S
C103        C106   1.396       .  D
C103        C388   1.514       .  S
C104        C107   1.373       .  D
C104        C491   1.481       .  S
C105        C108   1.377       .  D
C105        C441   1.483       .  S
C106        C378   1.503       .  S
C107        C521   1.493       .  S
C108        C651   1.518       .  S
C109        H110   1.108       .  S
C109        C115   1.530   1_565  S
C109        C114   1.535       .  S
C109        C113   1.548       .  S
C111        H112   1.108       .  S
C111        C117   1.530       .  S
C111        C116   1.552       .  S
C111        C118   1.528   1_565  S
C113        C792   1.396       .  D
C113        C368   1.504       .  S
C114        C793   1.373       .  D
C114        C668   1.481       .  S
C115        C794   1.366       .  D
C115        C618   1.475       .  S
C116        C789   1.396   1_554  D
C116        C358   1.504       .  S
C117        C790   1.373   1_554  D
C117        C461   1.491       .  S
C118        C791   1.366   1_554  D
C118        C431   1.478       .  S
C119        H120   1.111       .  S
C119        C125   1.539   1_545  S
C119        C124   1.531       .  S
C119        C123   1.541       .  S
C121        H122   1.109       .  S
C121        C127   1.536       .  S
C121        C126   1.543       .  S
C121        C128   1.533   1_545  S
C123        C802   1.383       .  D
C123        C338   1.478       .  S
C124        C803   1.372       .  D
C124        C591   1.484       .  S
C125        C804   1.377       .  D
C125        C541   1.499       .  S
C126        C799   1.383   1_554  D
C126        C328   1.500       .  S
C127        C800   1.372   1_554  D
C127        C348   1.488       .  S
C128        C801   1.377   1_554  D
C128        C511   1.477       .  S
C129        H130   1.111       .  S
C129        C135   1.534       .  S
C129        C134   1.534       .  S
C129        C133   1.538       .  S
C131        H132   1.108       .  S
C131        C137   1.533       .  S
C131        C136   1.547       .  S
C131        C138   1.532       .  S
C133        C136   1.381       .  D
C133        C308   1.493       .  S
C134        C137   1.374       .  D
C134        C411   1.487       .  S
C135        C138   1.377       .  D
C135        C318   1.476       .  S
C136        C298   1.482       .  S
C137        C601   1.487       .  S
C138        C571   1.497       .  S
C139        C311   1.558   1_565  S
C139        C331   1.569       .  S
C139        C361   1.562       .  S
C139        C391   1.571       .  S
C140        C301   1.575       .  S
C140        C341   1.576       .  S
C140        C371   1.590       .  S
C140        C381   1.589   1_545  S
C141        H142   1.109       .  S
C141        C147   1.536       .  S
C141        C146   1.538       .  S
C141        C145   1.548       .  S
C143        H144   1.110       .  S
C143        C149   1.525       .  S
C143        C148   1.547       .  S
C143        C150   1.525       .  S
C145        C148   1.391       .  D
C145        C288   1.502       .  S
C146        C149   1.370       .  D
C146        C451   1.485       .  S
C147        C150   1.368       .  D
C147        C398   1.478       .  S
C148        C278   1.494       .  S
C149        C641   1.478       .  S
C150        C611   1.478       .  S
C151        H152   1.110       .  S
C151        C157   1.527       .  S
C151        C156   1.532   1_655  S
C151        C155   1.547       .  S
C153        H154   1.106       .  S
C153        C159   1.526       .  S
C153        C158   1.553       .  S
C153        C160   1.530   1_455  S
C155        C834   1.398   1_655  D
C155        C268   1.499       .  S
C156        C835   1.369       .  D
C156        C551   1.474       .  S
C157        C836   1.367       .  D
C157        C661   1.478       .  S
C158        C831   1.398   1_454  D
C158        C261   1.511       .  S
C159        C832   1.369   1_554  D
C159        C501   1.487       .  S
C160        C833   1.367   1_554  D
C160        C468   1.471       .  S
C161        H162   1.105       .  S
C161        C167   1.522   1_655  S
C161        C166   1.527       .  S
C161        C165   1.555       .  S
C163        H164   1.110       .  S
C163        C169   1.531       .  S
C163        C168   1.544       .  S
C163        C170   1.534   1_655  S
C165        C844   1.399       .  D
C165        C241   1.508   1_655  S
C166        C845   1.365       .  D
C166        C631   1.471       .  S
C167        C846   1.367       .  D
C167        C581   1.482       .  S
C168        C841   1.399   1_554  D
C168        C231   1.503       .  S
C169        C842   1.365   1_554  D
C169        C418   1.478       .  S
C170        C843   1.367   1_554  D
C170        C248   1.474       .  S
C171        H172   1.109       .  S
C171        C177   1.528       .  S
C171        C176   1.530       .  S
C171        C175   1.551       .  S
C173        H174   1.109       .  S
C173        C179   1.527       .  S
C173        C178   1.553       .  S
C173        C180   1.530       .  S
C175        C178   1.400       .  D
C175        C208   1.509       .  S
C176        C179   1.365       .  D
C176        C218   1.475       .  S
C177        C180   1.366       .  D
C177        C481   1.472       .  S
C178        C201   1.505       .  S
C179        C558   1.474       .  S
C180        C531   1.480       .  S
C181        C211   1.569       .  S
C181        C228   1.566   1_455  S
C181        C258   1.567       .  S
C181        C291   1.571   1_455  S
C182        C198   1.564   1_655  S
C182        C238   1.564   1_655  S
C182        C271   1.563       .  S
C182        C281   1.566       .  S
O183        V191   1.902       .  S
O183        C193   1.263       .  A
O184        V191   1.902       .  S
O184        C194   1.265       .  A
O185        V191   1.896       .  S
O185        C195   1.265       .  A
O186        V191   1.894       .  S
O186        C196   1.263       .  A
O187        V192   1.892       .  S
O187        C196   1.264       .  A
O188        V192   1.894       .  S
O188        C195   1.262       .  A
O189        V192   1.897       .  S
O189        C194   1.262       .  A
O190        V192   1.897       .  S
O190        C193   1.264       .  A
V191        V192   2.088       .  T
C193        C221   1.467       .  S
C194        C351   1.465       .  S
C195        C251   1.472       .  S
C196        C321   1.471       .  S
C197        C198   1.421       .  A
C197        C202   1.405       .  A
C197        H204   1.082       .  S
C198        C199   1.411       .  A
C199        C200   1.395       .  A
C199        F206   1.355       .  S
C200        C201   1.408       .  A
C200        H205   1.080       .  S
C201        C202   1.406       .  A
C202        F203   1.356       .  S
C207        C208   1.409       .  A
C207        C212   1.399       .  A
C207        H214   1.080       .  S
C208        C209   1.406       .  A
C209        C210   1.407       .  A
C209        F216   1.356       .  S
C210        C211   1.422       .  A
C210        H215   1.082       .  S
C211        C212   1.413       .  A
C212        F213   1.355       .  S
C217        C218   1.400       .  A
C217        C222   1.393       .  A
C217        H224   1.083       .  S
C218        C219   1.405       .  A
C219        C220   1.402       .  A
C219        F226   1.357       .  S
C220        C221   1.403       .  A
C220        H225   1.083       .  S
C221        C222   1.403       .  A
C222        F223   1.358       .  S
C227        C228   1.409   1_455  A
C227        C232   1.400       .  A
C227        H234   1.080       .  S
C228        C229   1.424       .  A
C229        C230   1.406       .  A
C229        F236   1.357       .  S
C230        C231   1.402       .  A
C230        H235   1.083       .  S
C231        C232   1.411   1_655  A
C232        F233   1.356       .  S
C237        C238   1.406   1_655  A
C237        C242   1.394       .  A
C237        H244   1.081       .  S
C238        C239   1.424       .  A
C239        C240   1.404       .  A
C239        F246   1.356       .  S
C240        C241   1.405       .  A
C240        H245   1.081       .  S
C241        C242   1.415   1_455  A
C242        F243   1.355       .  S
C247        C248   1.399       .  A
C247        C252   1.399       .  A
C247        H254   1.083       .  S
C248        C249   1.405       .  A
C249        C250   1.391       .  A
C249        F932   1.358       .  S
C250        C251   1.402       .  A
C250        H255   1.083       .  S
C251        C252   1.409       .  A
C252        F253   1.357       .  S
F256        C925   1.358       .  S
C257        C258   1.406   1_655  A
C257        C262   1.396       .  A
C257        H264   1.081       .  S
C258        C259   1.425       .  A
C259        C260   1.406       .  A
C259        F266   1.356       .  S
C260        C261   1.405       .  A
C260        H265   1.081       .  S
C261        C262   1.415   1_455  A
C262        F263   1.355       .  S
C267        C268   1.403       .  A
C267        C272   1.407       .  A
C267        H274   1.083       .  S
C268        C269   1.409   1_655  A
C269        C270   1.396       .  A
C269        F276   1.356       .  S
C270        C271   1.408   1_455  A
C270        H275   1.080       .  S
C271        C272   1.423       .  A
C272        F273   1.357       .  S
C277        C278   1.402       .  A
C277        C282   1.405       .  A
C277        H284   1.083       .  S
C278        C279   1.408       .  A
C279        C280   1.395       .  A
C279        F286   1.356       .  S
C280        C281   1.410       .  A
C280        H285   1.079       .  S
C281        C282   1.422       .  A
C282        F283   1.357       .  S
C287        C288   1.403       .  A
C287        C292   1.407       .  A
C287        H294   1.083       .  S
C288        C289   1.409       .  A
C289        C290   1.399       .  A
C289        F296   1.357       .  S
C290        C291   1.411       .  A
C290        H295   1.079       .  S
C291        C292   1.423       .  A
C292        F293   1.357       .  S
C297        C298   1.396       .  A
C297        C302   1.403       .  A
C297        H304   1.084       .  S
C298        C299   1.397       .  A
C299        C300   1.395       .  A
C299        F306   1.358       .  S
C300        C301   1.422       .  A
C300        H305   1.081       .  S
C301        C302   1.425       .  A
C302        F303   1.350       .  S
C307        C308   1.403       .  A
C307        C312   1.398       .  A
C307        H314   1.083       .  S
C308        C309   1.403       .  A
C309        C310   1.397       .  A
C309        F316   1.352       .  S
C310        C311   1.415       .  A
C310        H315   1.083       .  S
C311        C312   1.418       .  A
C312        F313   1.354       .  S
C317        C318   1.402       .  A
C317        C322   1.390       .  A
C317        H324   1.084       .  S
C318        C319   1.401       .  A
C319        C320   1.399       .  A
C319        F326   1.356       .  S
C320        C321   1.406       .  A
C320        H325   1.083       .  S
C321        C322   1.406       .  A
C322        F323   1.358       .  S
C327        C328   1.401       .  A
C327        C332   1.400       .  A
C327        H334   1.081       .  S
C328        C329   1.409   1_545  A
C329        C330   1.400       .  A
C329        F336   1.356       .  S
C330        C331   1.413       .  A
C330        H335   1.080       .  S
C331        C332   1.422   1_565  A
C332        F333   1.355       .  S
C337        C338   1.393       .  A
C337        C342   1.396       .  A
C337        H344   1.084       .  S
C338        C339   1.397   1_545  A
C339        C340   1.402       .  A
C339        F346   1.358       .  S
C340        C341   1.419   1_565  A
C340        H345   1.074       .  S
C341        C342   1.431       .  A
C342        F343   1.357       .  S
C347        C348   1.408       .  A
C347        C352   1.400       .  A
C347        H354   1.083       .  S
C348        C349   1.406       .  A
C349        C350   1.398       .  A
C349        F356   1.357       .  S
C350        C351   1.402       .  A
C350        H355   1.084       .  S
C351        C352   1.401       .  A
C352        F353   1.357       .  S
C357        C358   1.408   1_545  A
C357        C362   1.398       .  A
C357        H364   1.081       .  S
C358        C359   1.407       .  A
C359        C360   1.404       .  A
C359       F1042   1.356       .  S
C360        C361   1.418       .  A
C360        H365   1.082       .  S
C361        C362   1.413   1_565  A
C362        F363   1.355       .  S
F366       C1035   1.356       .  S
C367        C368   1.400   1_545  A
C367        C372   1.407       .  A
C367        H374   1.083       .  S
C368        C369   1.407       .  A
C369        C370   1.398       .  A
C369        F376   1.357       .  S
C370        C371   1.417   1_565  A
C370        H375   1.080       .  S
C371        C372   1.429       .  A
C372        F373   1.349       .  S
C377        C378   1.398       .  A
C377        C382   1.395       .  A
C377        H384   1.074       .  S
C378        C379   1.403       .  A
C379        C380   1.407       .  A
C379        F386   1.357       .  S
C380        C381   1.426       .  A
C380        H385   1.074       .  S
C381        C382   1.420       .  A
C382        F383   1.358       .  S
C387        C388   1.404       .  A
C387        C392   1.408       .  A
C387        H394   1.082       .  S
C388        C389   1.416       .  A
C389        C390   1.400       .  A
C389        F396   1.356       .  S
C390        C391   1.407       .  A
C390        H395   1.082       .  S
C391        C392   1.426       .  A
C392        F393   1.356       .  S
C397        C398   1.401       .  A
C397        C402   1.396       .  A
C397        H404   1.084       .  S
C398        C399   1.405       .  A
C399        C400   1.401       .  A
C399        F406   1.357       .  S
C400        C401   1.402       .  A
C400        H405   1.083       .  S
C401        C402   1.404       .  A
C402        F403   1.358       .  S
C407        C408   1.408       .  A
C407        C412   1.404       .  A
C407        H414   1.083       .  S
C408        C409   1.407       .  A
C409        C410   1.395       .  A
C409        F416   1.357       .  S
C410        C411   1.404       .  A
C410        H415   1.084       .  S
C411        C412   1.403       .  A
C412        F413   1.356       .  S
C417        C418   1.402       .  A
C417        C422   1.397       .  A
C417        H424   1.083       .  S
C418        C419   1.404       .  A
C419        C420   1.401       .  A
C419       F1102   1.357       .  S
C420        C421   1.404       .  A
C420        H425   1.083       .  S
C421        C422   1.404       .  A
C422        F423   1.357       .  S
F426       C1095   1.357       .  S
C427        C428   1.405       .  A
C427        C432   1.401       .  A
C427        H434   1.083       .  S
C428        C429   1.405       .  A
C429        C430   1.396       .  A
C429        F436   1.358       .  S
C430        C431   1.402       .  A
C430        H435   1.084       .  S
C431        C432   1.402       .  A
C432        F433   1.357       .  S
C437        C438   1.408       .  A
C437        C442   1.399       .  A
C437        H444   1.083       .  S
C438        C439   1.407       .  A
C439        C440   1.395       .  A
C439        F446   1.357       .  S
C440        C441   1.405       .  A
C440        H445   1.084       .  S
C441        C442   1.402       .  A
C442        F443   1.357       .  S
C447        C448   1.405       .  A
C447        C452   1.396       .  A
C447        H454   1.083       .  S
C448        C449   1.411       .  A
C449        C450   1.404       .  A
C449        F456   1.357       .  S
C450        C451   1.400       .  A
C450        H455   1.083       .  S
C451        C452   1.406       .  A
C452        F453   1.358       .  S
C457        C458   1.400       .  A
C457        C462   1.397       .  A
C457        H464   1.084       .  S
C458        C459   1.401       .  A
C459        C460   1.399       .  A
C459        F466   1.357       .  S
C460        C461   1.408       .  A
C460        H465   1.083       .  S
C461        C462   1.408       .  A
C462        F463   1.356       .  S
C467        C468   1.399       .  A
C467        C472   1.391       .  A
C467        H474   1.083       .  S
C468        C469   1.403       .  A
C469        C470   1.400       .  A
C469        F476   1.357       .  S
C470        C471   1.403       .  A
C470        H475   1.083       .  S
C471        C472   1.404       .  A
C472        F473   1.358       .  S
C477        C478   1.405       .  A
C477        C482   1.401       .  A
C477        H484   1.083       .  S
C478        C479   1.405       .  A
C479        C480   1.392       .  A
C479        F486   1.358       .  S
C480        C481   1.399       .  A
C480        H485   1.083       .  S
C481        C482   1.402       .  A
C482        F483   1.357       .  S
C487        C488   1.408       .  A
C487        C492   1.402       .  A
C487        H494   1.083       .  S
C488        C489   1.407       .  A
C489        C490   1.392       .  A
C489        F496   1.358       .  S
C490        C491   1.403       .  A
C490        H495   1.084       .  S
C491        C492   1.402       .  A
C492        F493   1.356       .  S
C497        C498   1.401       .  A
C497        C502   1.397       .  A
C497        H504   1.084       .  S
C498        C499   1.401       .  A
C499        C500   1.399       .  A
C499        F506   1.357       .  S
C500        C501   1.406       .  A
C500       H1181   1.083       .  S
C501        C502   1.407       .  A
C502        F503   1.357       .  S
H505       C1176   1.083       .  S
C507        C508   1.407       .  A
C507        C512   1.400       .  A
C507        H514   1.083       .  S
C508        C509   1.407       .  A
C509        C510   1.393       .  A
C509        F516   1.358       .  S
C510        C511   1.403       .  A
C510        H515   1.084       .  S
C511        C512   1.400       .  A
C512        F513   1.357       .  S
C517        C518   1.398       .  A
C517        C522   1.395       .  A
C517        H524   1.083       .  S
C518        C519   1.400       .  A
C519        C520   1.399       .  A
C519        F526   1.357       .  S
C520        C521   1.409       .  A
C520        H525   1.083       .  S
C521        C522   1.409       .  A
C522        F523   1.356       .  S
C527        C528   1.403       .  A
C527        C532   1.395       .  A
C527        H534   1.084       .  S
C528        C529   1.406       .  A
C529        C530   1.405       .  A
C529        F536   1.357       .  S
C530        C531   1.404       .  A
C530        H535   1.083       .  S
C531        C532   1.403       .  A
C532        F533   1.357       .  S
C537        C538   1.401       .  A
C537        C542   1.400       .  A
C537        H544   1.083       .  S
C538        C539   1.401       .  A
C539        C540   1.400       .  A
C539        F546   1.357       .  S
C540        C541   1.410       .  A
C540       H1221   1.083       .  S
C541        C542   1.409       .  A
C542        F543   1.355       .  S
H545       C1216   1.083       .  S
C547        C548   1.403       .  A
C547        C552   1.388       .  A
C547        H554   1.083       .  S
C548        C549   1.408       .  A
C549        C550   1.403       .  A
C549        F556   1.357       .  S
C550        C551   1.402       .  A
C550        H555   1.083       .  S
C551        C552   1.402       .  A
C552       F1229   1.358       .  S
F553       C1228   1.358       .  S
C557        C558   1.401       .  A
C557        C562   1.393       .  A
C557        H564   1.083       .  S
C558        C559   1.401       .  A
C559        C560   1.399       .  A
C559        F566   1.357       .  S
C560        C561   1.405       .  A
C560        H565   1.083       .  S
C561        C562   1.406       .  A
C562        F563   1.358       .  S
C567        C568   1.398       .  A
C567        C572   1.395       .  A
C567        H574   1.084       .  S
C568        C569   1.399       .  A
C569        C570   1.398       .  A
C569        F576   1.358       .  S
C570        C571   1.411       .  A
C570        H575   1.083       .  S
C571        C572   1.409       .  A
C572        F573   1.353       .  S
C577        C578   1.401       .  A
C577        C582   1.400       .  A
C577        H584   1.083       .  S
C578        C579   1.403       .  A
C579        C580   1.395       .  A
C579        F586   1.358       .  S
C580        C581   1.402       .  A
C580        H585   1.084       .  S
C581        C582   1.407       .  A
C582       F1259   1.357       .  S
F583       C1258   1.357       .  S
C587        C588   1.408       .  A
C587        C592   1.403       .  A
C587        H594   1.083       .  S
C588        C589   1.407       .  A
C589        C590   1.392       .  A
C589        F596   1.358       .  S
C590        C591   1.403       .  A
C590        H595   1.083       .  S
C591        C592   1.403       .  A
C592        F593   1.357       .  S
C597        C598   1.399       .  A
C597        C602   1.394       .  A
C597        H604   1.083       .  S
C598        C599   1.398       .  A
C599        C600   1.396       .  A
C599        F606   1.357       .  S
C600        C601   1.409       .  A
C600        H605   1.083       .  S
C601        C602   1.406       .  A
C602        F603   1.354       .  S
C607        C608   1.403       .  A
C607        C612   1.392       .  A
C607        H614   1.083       .  S
C608        C609   1.408       .  A
C609        C610   1.403       .  A
C609        F616   1.357       .  S
C610        C611   1.402       .  A
C610        H615   1.083       .  S
C611        C612   1.402       .  A
C612        F613   1.357       .  S
C617        C618   1.400       .  A
C617        C622   1.394       .  A
C617        H624   1.084       .  S
C618        C619   1.403       .  A
C619        C620   1.401       .  A
C619        F626   1.357       .  S
C620        C621   1.404       .  A
C620        H625   1.083       .  S
C621        C622   1.404       .  A
C622        F623   1.357       .  S
C627        C628   1.402       .  A
C627        C632   1.391       .  A
C627        H634   1.084       .  S
C628        C629   1.405       .  A
C629        C630   1.401       .  A
C629        F636   1.357       .  S
C630        C631   1.402       .  A
C630        H635   1.083       .  S
C631        C632   1.401       .  A
C632       F1309   1.358       .  S
F633       C1308   1.358       .  S
C637        C638   1.400       .  A
C637        C642   1.395       .  A
C637        H644   1.084       .  S
C638        C639   1.401       .  A
C639        C640   1.397       .  A
C639        F646   1.357       .  S
C640        C641   1.404       .  A
C640        H645   1.083       .  S
C641        C642   1.404       .  A
C642        F643   1.357       .  S
C647        C648   1.398       .  A
C647        C652   1.398       .  A
C647        H654   1.084       .  S
C648        C649   1.398       .  A
C649        C650   1.398       .  A
C649        F656   1.358       .  S
C650        C651   1.416       .  A
C650        H655   1.080       .  S
C651        C652   1.414       .  A
C652        F653   1.347       .  S
C657        C658   1.406       .  A
C657        C662   1.404       .  A
C657        H664   1.083       .  S
C658        C659   1.406       .  A
C659        C660   1.393       .  A
C659        F666   1.358       .  S
C660        C661   1.400       .  A
C660       H1341   1.083       .  S
C661        C662   1.403       .  A
C662        F663   1.357       .  S
H665       C1336   1.083       .  S
C667        C668   1.401       .  A
C667        C672   1.403       .  A
C667        H674   1.083       .  S
C668        C669   1.405       .  A
C669        C670   1.392       .  A
C669       F1352   1.358       .  S
C670        C671   1.402       .  A
C670        H675   1.083       .  S
C671        C672   1.410       .  A
C672        F673   1.357       .  S
F676       C1345   1.358       .  S
O677        V685   1.895       .  S
O677        C687   1.264       .  A
O678        V685   1.895       .  S
O678        C688   1.262       .  A
O679        V685   1.900       .  S
O679        C689   1.263       .  A
O680        V685   1.898       .  S
O680        C690   1.266       .  A
O681        V686   1.900       .  S
O681        C690   1.263       .  A
O682        V686   1.891       .  S
O682        C689   1.262       .  A
O683        V686   1.904       .  S
O683        C688   1.266       .  A
O684        V686   1.906       .  S
O684        C687   1.265       .  A
V685        V686   2.087       .  T
C687       C1334   1.474       .  S
C688       C1324   1.467       .  S
C689       C1314   1.458       .  S
C690       C1347   1.476       .  S
O691        V699   1.904       .  S
O691        C701   1.265       .  A
O692        V699   1.902       .  S
O692        C702   1.266       .  A
O693        V699   1.889       .  S
O693        C703   1.262       .  A
O694        V699   1.886       .  S
O694        C704   1.259       .  A
O695        V700   1.903       .  S
O695        C704   1.265       .  A
O696        V700   1.901       .  S
O696        C703   1.264       .  A
O697        V700   1.896       .  S
O697        C702   1.262       .  A
O698        V700   1.893       .  S
O698        C701   1.264       .  A
V699        V700   2.090       .  T
C701       C1284   1.474       .  S
C702       C1297   1.468       .  S
C703       C1304   1.466       .  S
C704       C1274   1.457       .  S
O705        V713   1.894       .  S
O705        C715   1.261       .  A
O706        V713   1.895       .  S
O706        C716   1.263       .  A
O707        V713   1.896       .  S
O707        C717   1.265       .  A
O708        V713   1.897       .  S
O708        C718   1.263       .  A
O709        V714   1.897       .  S
O709        C718   1.264       .  A
O710        V714   1.903       .  S
O710        C717   1.265       .  A
O711        V714   1.901       .  S
O711        C716   1.263       .  A
O712        V714   1.901       .  S
O712        C715   1.264       .  A
V713        V714   2.087       .  T
C715       C1244   1.461       .  S
C716       C1254   1.463       .  S
C717       C1264   1.479       .  S
C718       C1237   1.470       .  S
O719        V727   1.904       .  S
O719        C729   1.265       .  A
O720        V727   1.906       .  S
O720        C730   1.265       .  A
O721        V727   1.901       .  S
O721        C731   1.263       .  A
O722        V727   1.895       .  S
O722        C732   1.264       .  A
O723        V728   1.910       .  S
O723        C732   1.266       .  A
O724        V728   1.907       .  S
O724        C731   1.266       .  A
O725        V728   1.886       .  S
O725        C730   1.263       .  A
O726        V728   1.891       .  S
O726        C729   1.261       .  A
V727        V728   2.084       .  T
C729       C1194   1.462       .  S
C730       C1224   1.473       .  S
C731       C1214   1.471       .  S
C732       C1204   1.474       .  S
O733        V741   1.899       .  S
O733        C743   1.264       .  A
O734        V741   1.903       .  S
O734        C744   1.264       .  A
O735        V741   1.899       .  S
O735        C745   1.266       .  A
O736        V741   1.901       .  S
O736        C746   1.264       .  A
O737        V742   1.893       .  S
O737        C746   1.263       .  A
O738        V742   1.894       .  S
O738        C745   1.262       .  A
O739        V742   1.896       .  S
O739        C744   1.262       .  A
O740        V742   1.896       .  S
O740        C743   1.265       .  A
V741        V742   2.088       .  T
C743       C1164   1.477       .  S
C744       C1174   1.464       .  S
C745       C1184   1.475       .  S
C746       C1154   1.469       .  S
O747        V755   1.900       .  S
O747        C757   1.264       .  A
O748        V755   1.901       .  S
O748        C758   1.264       .  A
O749        V755   1.893       .  S
O749        C759   1.263       .  A
O750        V755   1.890       .  S
O750        C760   1.262       .  A
O751        V756   1.902       .  S
O751        C760   1.264       .  A
O752        V756   1.901       .  S
O752        C759   1.266       .  A
O753        V756   1.904       .  S
O753        C758   1.267       .  A
O754        V756   1.900       .  S
O754        C757   1.263       .  A
V755        V756   2.087       .  T
C757       C1134   1.465       .  S
C758       C1124   1.484       .  S
C759       C1114   1.478       .  S
C760       C1147   1.465       .  S
O761        V769   1.902       .  S
O761        C771   1.264       .  A
O762        V769   1.906       .  S
O762        C772   1.266       .  A
O763        V769   1.900       .  S
O763        C773   1.265       .  A
O764        V769   1.899       .  S
O764        C774   1.262       .  A
O765        V770   1.903       .  S
O765        C774   1.265       .  A
O766        V770   1.899       .  S
O766        C773   1.263       .  A
O767        V770   1.896       .  S
O767        C772   1.262       .  A
O768        V770   1.901       .  S
O768        C771   1.266       .  A
V769        V770   2.088       .  T
C771       C1084   1.482       .  S
C772       C1097   1.470       .  S
C773       C1104   1.471       .  S
C774       C1077   1.468       .  S
C775        H776   1.107       .  S
C775        C781   1.533       .  S
C775        C780   1.537       .  S
C775        C779   1.541       .  S
C777        H778   1.102       .  S
C777        C783   1.528       .  S
C777        C782   1.565       .  S
C777        C784   1.542       .  S
C779        C782   1.396       .  D
C779       C1064   1.514       .  S
C780        C783   1.373       .  D
C780       C1167   1.481       .  S
C781        C784   1.377       .  D
C781       C1117   1.483       .  S
C782       C1054   1.503       .  S
C783       C1197   1.494       .  S
C784       C1327   1.518       .  S
C785        H786   1.108       .  S
C785        C791   1.530   1_565  S
C785        C790   1.535       .  S
C785        C789   1.548       .  S
C787        H788   1.108       .  S
C787        C793   1.530       .  S
C787        C792   1.552       .  S
C787        C794   1.528   1_565  S
C789       C1044   1.504       .  S
C790       C1344   1.481       .  S
C791       C1294   1.475       .  S
C792       C1034   1.504       .  S
C793       C1137   1.491       .  S
C794       C1107   1.478       .  S
C795        H796   1.111       .  S
C795        C801   1.539   1_545  S
C795        C800   1.531       .  S
C795        C799   1.541       .  S
C797        H798   1.109       .  S
C797        C803   1.536       .  S
C797        C802   1.543       .  S
C797        C804   1.533   1_545  S
C799       C1014   1.478       .  S
C800       C1267   1.484       .  S
C801       C1217   1.499       .  S
C802       C1004   1.500       .  S
C803       C1024   1.488       .  S
C804       C1187   1.477       .  S
C805        H806   1.111       .  S
C805        C811   1.534       .  S
C805        C810   1.534       .  S
C805        C809   1.538       .  S
C807        H808   1.108       .  S
C807        C813   1.533       .  S
C807        C812   1.547       .  S
C807        C814   1.532       .  S
C809        C812   1.381       .  D
C809        C984   1.493       .  S
C810        C813   1.374       .  D
C810       C1087   1.487       .  S
C811        C814   1.377       .  D
C811        C994   1.476       .  S
C812        C974   1.482       .  S
C813       C1277   1.487       .  S
C814       C1247   1.497       .  S
C815        C987   1.558   1_565  S
C815       C1007   1.569       .  S
C815       C1037   1.562       .  S
C815       C1067   1.571       .  S
C816        C977   1.575       .  S
C816       C1017   1.576       .  S
C816       C1047   1.590       .  S
C816       C1057   1.589   1_545  S
C817        H818   1.109       .  S
C817        C823   1.536       .  S
C817        C822   1.538       .  S
C817        C821   1.548       .  S
C819        H820   1.110       .  S
C819        C825   1.525       .  S
C819        C824   1.547       .  S
C819        C826   1.525       .  S
C821        C824   1.391       .  D
C821        C964   1.502       .  S
C822        C825   1.370       .  D
C822       C1127   1.485       .  S
C823        C826   1.368       .  D
C823       C1074   1.478       .  S
C824        C954   1.494       .  S
C825       C1317   1.478       .  S
C826       C1287   1.478       .  S
C827        H828   1.110       .  S
C827        C833   1.527       .  S
C827        C832   1.532   1_655  S
C827        C831   1.547       .  S
C829        H830   1.106       .  S
C829        C835   1.526       .  S
C829        C834   1.553       .  S
C829        C836   1.530   1_455  S
C831        C944   1.499       .  S
C832       C1227   1.474       .  S
C833       C1337   1.478       .  S
C834        C937   1.510       .  S
C835       C1177   1.487       .  S
C836       C1144   1.471       .  S
C837        H838   1.105       .  S
C837        C843   1.522   1_655  S
C837        C842   1.527       .  S
C837        C841   1.555       .  S
C839        H840   1.110       .  S
C839        C845   1.531       .  S
C839        C844   1.544       .  S
C839        C846   1.534   1_655  S
C841        C917   1.508   1_655  S
C842       C1307   1.471       .  S
C843       C1257   1.482       .  S
C844        C907   1.503       .  S
C845       C1094   1.478       .  S
C846        C924   1.474       .  S
C847        H848   1.109       .  S
C847        C853   1.528       .  S
C847        C852   1.530       .  S
C847        C851   1.551       .  S
C849        H850   1.109       .  S
C849        C855   1.526       .  S
C849        C854   1.553       .  S
C849        C856   1.530       .  S
C851        C854   1.400       .  D
C851        C884   1.509       .  S
C852        C855   1.365       .  D
C852        C894   1.475       .  S
C853        C856   1.366       .  D
C853       C1157   1.472       .  S
C854        C877   1.505       .  S
C855       C1234   1.474       .  S
C856       C1207   1.480       .  S
C857        C887   1.569       .  S
C857        C904   1.566   1_455  S
C857        C934   1.567       .  S
C857        C967   1.571   1_455  S
C858        C874   1.564   1_655  S
C858        C914   1.564   1_655  S
C858        C947   1.563       .  S
C858        C957   1.566       .  S
O859        V867   1.902       .  S
O859        C869   1.263       .  A
O860        V867   1.902       .  S
O860        C870   1.265       .  A
O861        V867   1.896       .  S
O861        C871   1.265       .  A
O862        V867   1.894       .  S
O862        C872   1.263       .  A
O863        V868   1.892       .  S
O863        C872   1.264       .  A
O864        V868   1.894       .  S
O864        C871   1.262       .  A
O865        V868   1.897       .  S
O865        C870   1.262       .  A
O866        V868   1.897       .  S
O866        C869   1.264       .  A
V867        V868   2.088       .  T
C869        C897   1.467       .  S
C870       C1027   1.465       .  S
C871        C927   1.472       .  S
C872        C997   1.471       .  S
C873        C874   1.421       .  A
C873        C878   1.405       .  A
C873        H880   1.082       .  S
C874        C875   1.411       .  A
C875        C876   1.395       .  A
C875        F882   1.355       .  S
C876        C877   1.408       .  A
C876        H881   1.080       .  S
C877        C878   1.406       .  A
C878        F879   1.356       .  S
C883        C884   1.409       .  A
C883        C888   1.399       .  A
C883        H890   1.080       .  S
C884        C885   1.406       .  A
C885        C886   1.407       .  A
C885        F892   1.356       .  S
C886        C887   1.422       .  A
C886        H891   1.082       .  S
C887        C888   1.413       .  A
C888        F889   1.355       .  S
C893        C894   1.400       .  A
C893        C898   1.393       .  A
C893        H900   1.083       .  S
C894        C895   1.405       .  A
C895        C896   1.402       .  A
C895        F902   1.357       .  S
C896        C897   1.403       .  A
C896        H901   1.083       .  S
C897        C898   1.403       .  A
C898        F899   1.358       .  S
C903        C904   1.409   1_455  A
C903        C908   1.400       .  A
C903        H910   1.080       .  S
C904        C905   1.424       .  A
C905        C906   1.406       .  A
C905        F912   1.357       .  S
C906        C907   1.402       .  A
C906        H911   1.083       .  S
C907        C908   1.411   1_655  A
C908        F909   1.356       .  S
C913        C914   1.406   1_655  A
C913        C918   1.394       .  A
C913        H920   1.081       .  S
C914        C915   1.424       .  A
C915        C916   1.404       .  A
C915        F922   1.356       .  S
C916        C917   1.405       .  A
C916        H921   1.081       .  S
C917        C918   1.415   1_455  A
C918        F919   1.355       .  S
C923        C924   1.398       .  A
C923        C928   1.399       .  A
C923        H930   1.083       .  S
C924        C925   1.405       .  A
C925        C926   1.391       .  A
C926        C927   1.402       .  A
C926        H931   1.083       .  S
C927        C928   1.409       .  A
C928        F929   1.357       .  S
C933        C934   1.406   1_655  A
C933        C938   1.396       .  A
C933        H940   1.081       .  S
C934        C935   1.425       .  A
C935        C936   1.406       .  A
C935        F942   1.356       .  S
C936        C937   1.405       .  A
C936        H941   1.081       .  S
C937        C938   1.415   1_455  A
C938        F939   1.355       .  S
C943        C944   1.403       .  A
C943        C948   1.407       .  A
C943        H950   1.083       .  S
C944        C945   1.409   1_655  A
C945        C946   1.396       .  A
C945        F952   1.356       .  S
C946        C947   1.408   1_455  A
C946        H951   1.080       .  S
C947        C948   1.423       .  A
C948        F949   1.357       .  S
C953        C954   1.402       .  A
C953        C958   1.405       .  A
C953        H960   1.083       .  S
C954        C955   1.408       .  A
C955        C956   1.395       .  A
C955        F962   1.356       .  S
C956        C957   1.410       .  A
C956        H961   1.079       .  S
C957        C958   1.422       .  A
C958        F959   1.357       .  S
C963        C964   1.403       .  A
C963        C968   1.407       .  A
C963        H970   1.083       .  S
C964        C965   1.409       .  A
C965        C966   1.399       .  A
C965        F972   1.357       .  S
C966        C967   1.411       .  A
C966        H971   1.079       .  S
C967        C968   1.423       .  A
C968        F969   1.357       .  S
C973        C974   1.396       .  A
C973        C978   1.403       .  A
C973        H980   1.084       .  S
C974        C975   1.397       .  A
C975        C976   1.395       .  A
C975        F982   1.358       .  S
C976        C977   1.422       .  A
C976        H981   1.081       .  S
C977        C978   1.425       .  A
C978        F979   1.350       .  S
C983        C984   1.403       .  A
C983        C988   1.398       .  A
C983        H990   1.083       .  S
C984        C985   1.403       .  A
C985        C986   1.397       .  A
C985        F992   1.352       .  S
C986        C987   1.415       .  A
C986        H991   1.083       .  S
C987        C988   1.418       .  A
C988        F989   1.354       .  S
C993        C994   1.402       .  A
C993        C998   1.390       .  A
C993       H1000   1.084       .  S
C994        C995   1.401       .  A
C995        C996   1.399       .  A
C995       F1002   1.356       .  S
C996        C997   1.406       .  A
C996       H1001   1.083       .  S
C997        C998   1.406       .  A
C998        F999   1.358       .  S
C1003      C1004   1.401       .  A
C1003      C1008   1.400       .  A
C1003      H1010   1.081       .  S
C1004      C1005   1.409   1_545  A
C1005      C1006   1.400       .  A
C1005      F1012   1.356       .  S
C1006      C1007   1.413       .  A
C1006      H1011   1.080       .  S
C1007      C1008   1.422   1_565  A
C1008      F1009   1.355       .  S
C1013      C1014   1.393       .  A
C1013      C1018   1.396       .  A
C1013      H1020   1.084       .  S
C1014      C1015   1.397   1_545  A
C1015      C1016   1.402       .  A
C1015      F1022   1.358       .  S
C1016      C1017   1.419   1_565  A
C1016      H1021   1.074       .  S
C1017      C1018   1.431       .  A
C1018      F1019   1.357       .  S
C1023      C1024   1.408       .  A
C1023      C1028   1.400       .  A
C1023      H1030   1.083       .  S
C1024      C1025   1.406       .  A
C1025      C1026   1.398       .  A
C1025      F1032   1.357       .  S
C1026      C1027   1.402       .  A
C1026      H1031   1.084       .  S
C1027      C1028   1.401       .  A
C1028      F1029   1.357       .  S
C1033      C1034   1.408   1_545  A
C1033      C1038   1.398       .  A
C1033      H1040   1.081       .  S
C1034      C1035   1.407       .  A
C1035      C1036   1.404       .  A
C1036      C1037   1.418       .  A
C1036      H1041   1.082       .  S
C1037      C1038   1.413   1_565  A
C1038      F1039   1.355       .  S
C1043      C1044   1.400   1_545  A
C1043      C1048   1.407       .  A
C1043      H1050   1.083       .  S
C1044      C1045   1.407       .  A
C1045      C1046   1.398       .  A
C1045      F1052   1.357       .  S
C1046      C1047   1.417   1_565  A
C1046      H1051   1.080       .  S
C1047      C1048   1.429       .  A
C1048      F1049   1.349       .  S
C1053      C1054   1.398       .  A
C1053      C1058   1.395       .  A
C1053      H1060   1.074       .  S
C1054      C1055   1.403       .  A
C1055      C1056   1.407       .  A
C1055      F1062   1.357       .  S
C1056      C1057   1.426       .  A
C1056      H1061   1.074       .  S
C1057      C1058   1.420       .  A
C1058      F1059   1.358       .  S
C1063      C1064   1.404       .  A
C1063      C1068   1.408       .  A
C1063      H1070   1.082       .  S
C1064      C1065   1.416       .  A
C1065      C1066   1.400       .  A
C1065      F1072   1.356       .  S
C1066      C1067   1.407       .  A
C1066      H1071   1.082       .  S
C1067      C1068   1.426       .  A
C1068      F1069   1.355       .  S
C1073      C1074   1.401       .  A
C1073      C1078   1.397       .  A
C1073      H1080   1.084       .  S
C1074      C1075   1.405       .  A
C1075      C1076   1.401       .  A
C1075      F1082   1.357       .  S
C1076      C1077   1.402       .  A
C1076      H1081   1.083       .  S
C1077      C1078   1.404       .  A
C1078      F1079   1.358       .  S
C1083      C1084   1.408       .  A
C1083      C1088   1.404       .  A
C1083      H1090   1.083       .  S
C1084      C1085   1.407       .  A
C1085      C1086   1.395       .  A
C1085      F1092   1.357       .  S
C1086      C1087   1.404       .  A
C1086      H1091   1.084       .  S
C1087      C1088   1.403       .  A
C1088      F1089   1.356       .  S
C1093      C1094   1.402       .  A
C1093      C1098   1.397       .  A
C1093      H1100   1.083       .  S
C1094      C1095   1.404       .  A
C1095      C1096   1.401       .  A
C1096      C1097   1.404       .  A
C1096      H1101   1.083       .  S
C1097      C1098   1.404       .  A
C1098      F1099   1.357       .  S
C1103      C1104   1.405       .  A
C1103      C1108   1.401       .  A
C1103      H1110   1.083       .  S
C1104      C1105   1.405       .  A
C1105      C1106   1.396       .  A
C1105      F1112   1.358       .  S
C1106      C1107   1.402       .  A
C1106      H1111   1.084       .  S
C1107      C1108   1.402       .  A
C1108      F1109   1.357       .  S
C1113      C1114   1.408       .  A
C1113      C1118   1.399       .  A
C1113      H1120   1.083       .  S
C1114      C1115   1.407       .  A
C1115      C1116   1.395       .  A
C1115      F1122   1.357       .  S
C1116      C1117   1.404       .  A
C1116      H1121   1.084       .  S
C1117      C1118   1.402       .  A
C1118      F1119   1.357       .  S
C1123      C1124   1.405       .  A
C1123      C1128   1.396       .  A
C1123      H1130   1.083       .  S
C1124      C1125   1.411       .  A
C1125      C1126   1.404       .  A
C1125      F1132   1.357       .  S
C1126      C1127   1.400       .  A
C1126      H1131   1.083       .  S
C1127      C1128   1.406       .  A
C1128      F1129   1.358       .  S
C1133      C1134   1.400       .  A
C1133      C1138   1.397       .  A
C1133      H1140   1.084       .  S
C1134      C1135   1.401       .  A
C1135      C1136   1.399       .  A
C1135      F1142   1.357       .  S
C1136      C1137   1.408       .  A
C1136      H1141   1.083       .  S
C1137      C1138   1.408       .  A
C1138      F1139   1.356       .  S
C1143      C1144   1.399       .  A
C1143      C1148   1.391       .  A
C1143      H1150   1.083       .  S
C1144      C1145   1.403       .  A
C1145      C1146   1.401       .  A
C1145      F1152   1.357       .  S
C1146      C1147   1.403       .  A
C1146      H1151   1.083       .  S
C1147      C1148   1.404       .  A
C1148      F1149   1.358       .  S
C1153      C1154   1.405       .  A
C1153      C1158   1.401       .  A
C1153      H1160   1.083       .  S
C1154      C1155   1.405       .  A
C1155      C1156   1.392       .  A
C1155      F1162   1.358       .  S
C1156      C1157   1.399       .  A
C1156      H1161   1.083       .  S
C1157      C1158   1.402       .  A
C1158      F1159   1.357       .  S
C1163      C1164   1.408       .  A
C1163      C1168   1.402       .  A
C1163      H1170   1.083       .  S
C1164      C1165   1.407       .  A
C1165      C1166   1.392       .  A
C1165      F1172   1.358       .  S
C1166      C1167   1.403       .  A
C1166      H1171   1.084       .  S
C1167      C1168   1.402       .  A
C1168      F1169   1.356       .  S
C1173      C1174   1.401       .  A
C1173      C1178   1.397       .  A
C1173      H1180   1.084       .  S
C1174      C1175   1.401       .  A
C1175      C1176   1.399       .  A
C1175      F1182   1.357       .  S
C1176      C1177   1.406       .  A
C1177      C1178   1.407       .  A
C1178      F1179   1.357       .  S
C1183      C1184   1.407       .  A
C1183      C1188   1.400       .  A
C1183      H1190   1.083       .  S
C1184      C1185   1.407       .  A
C1185      C1186   1.393       .  A
C1185      F1192   1.358       .  S
C1186      C1187   1.402       .  A
C1186      H1191   1.084       .  S
C1187      C1188   1.400       .  A
C1188      F1189   1.357       .  S
C1193      C1194   1.398       .  A
C1193      C1198   1.395       .  A
C1193      H1200   1.083       .  S
C1194      C1195   1.400       .  A
C1195      C1196   1.399       .  A
C1195      F1202   1.357       .  S
C1196      C1197   1.409       .  A
C1196      H1201   1.083       .  S
C1197      C1198   1.409       .  A
C1198      F1199   1.356       .  S
C1203      C1204   1.403       .  A
C1203      C1208   1.395       .  A
C1203      H1210   1.084       .  S
C1204      C1205   1.406       .  A
C1205      C1206   1.405       .  A
C1205      F1212   1.357       .  S
C1206      C1207   1.404       .  A
C1206      H1211   1.083       .  S
C1207      C1208   1.403       .  A
C1208      F1209   1.357       .  S
C1213      C1214   1.401       .  A
C1213      C1218   1.400       .  A
C1213      H1220   1.083       .  S
C1214      C1215   1.401       .  A
C1215      C1216   1.400       .  A
C1215      F1222   1.358       .  S
C1216      C1217   1.410       .  A
C1217      C1218   1.409       .  A
C1218      F1219   1.355       .  S
C1223      C1224   1.403       .  A
C1223      C1228   1.388       .  A
C1223      H1230   1.083       .  S
C1224      C1225   1.408       .  A
C1225      C1226   1.403       .  A
C1225      F1232   1.357       .  S
C1226      C1227   1.402       .  A
C1226      H1231   1.083       .  S
C1227      C1228   1.402       .  A
C1233      C1234   1.401       .  A
C1233      C1238   1.393       .  A
C1233      H1240   1.083       .  S
C1234      C1235   1.401       .  A
C1235      C1236   1.399       .  A
C1235      F1242   1.357       .  S
C1236      C1237   1.405       .  A
C1236      H1241   1.083       .  S
C1237      C1238   1.406       .  A
C1238      F1239   1.358       .  S
C1243      C1244   1.398       .  A
C1243      C1248   1.395       .  A
C1243      H1250   1.084       .  S
C1244      C1245   1.399       .  A
C1245      C1246   1.398       .  A
C1245      F1252   1.358       .  S
C1246      C1247   1.411       .  A
C1246      H1251   1.083       .  S
C1247      C1248   1.409       .  A
C1248      F1249   1.353       .  S
C1253      C1254   1.401       .  A
C1253      C1258   1.400       .  A
C1253      H1260   1.083       .  S
C1254      C1255   1.403       .  A
C1255      C1256   1.395       .  A
C1255      F1262   1.358       .  S
C1256      C1257   1.402       .  A
C1256      H1261   1.084       .  S
C1257      C1258   1.407       .  A
C1263      C1264   1.408       .  A
C1263      C1268   1.403       .  A
C1263      H1270   1.083       .  S
C1264      C1265   1.407       .  A
C1265      C1266   1.392       .  A
C1265      F1272   1.358       .  S
C1266      C1267   1.403       .  A
C1266      H1271   1.083       .  S
C1267      C1268   1.403       .  A
C1268      F1269   1.357       .  S
C1273      C1274   1.399       .  A
C1273      C1278   1.394       .  A
C1273      H1280   1.083       .  S
C1274      C1275   1.398       .  A
C1275      C1276   1.396       .  A
C1275      F1282   1.357       .  S
C1276      C1277   1.409       .  A
C1276      H1281   1.083       .  S
C1277      C1278   1.406       .  A
C1278      F1279   1.354       .  S
C1283      C1284   1.403       .  A
C1283      C1288   1.392       .  A
C1283      H1290   1.083       .  S
C1284      C1285   1.408       .  A
C1285      C1286   1.403       .  A
C1285      F1292   1.357       .  S
C1286      C1287   1.402       .  A
C1286      H1291   1.083       .  S
C1287      C1288   1.402       .  A
C1288      F1289   1.357       .  S
C1293      C1294   1.400       .  A
C1293      C1298   1.394       .  A
C1293      H1300   1.084       .  S
C1294      C1295   1.403       .  A
C1295      C1296   1.401       .  A
C1295      F1302   1.357       .  S
C1296      C1297   1.404       .  A
C1296      H1301   1.083       .  S
C1297      C1298   1.404       .  A
C1298      F1299   1.357       .  S
C1303      C1304   1.402       .  A
C1303      C1308   1.391       .  A
C1303      H1310   1.084       .  S
C1304      C1305   1.405       .  A
C1305      C1306   1.401       .  A
C1305      F1312   1.357       .  S
C1306      C1307   1.402       .  A
C1306      H1311   1.083       .  S
C1307      C1308   1.401       .  A
C1313      C1314   1.400       .  A
C1313      C1318   1.395       .  A
C1313      H1320   1.084       .  S
C1314      C1315   1.401       .  A
C1315      C1316   1.397       .  A
C1315      F1322   1.357       .  S
C1316      C1317   1.404       .  A
C1316      H1321   1.083       .  S
C1317      C1318   1.404       .  A
C1318      F1319   1.357       .  S
C1323      C1324   1.398       .  A
C1323      C1328   1.398       .  A
C1323      H1330   1.084       .  S
C1324      C1325   1.398       .  A
C1325      C1326   1.398       .  A
C1325      F1332   1.358       .  S
C1326      C1327   1.416       .  A
C1326      H1331   1.080       .  S
C1327      C1328   1.414       .  A
C1328      F1329   1.347       .  S
C1333      C1334   1.406       .  A
C1333      C1338   1.404       .  A
C1333      H1340   1.083       .  S
C1334      C1335   1.406       .  A
C1335      C1336   1.393       .  A
C1335      F1342   1.358       .  S
C1336      C1337   1.400       .  A
C1337      C1338   1.403       .  A
C1338      F1339   1.357       .  S
C1343      C1344   1.401       .  A
C1343      C1348   1.403       .  A
C1343      H1350   1.083       .  S
C1344      C1345   1.405       .  A
C1345      C1346   1.392       .  A
C1346      C1347   1.402       .  A
C1346      H1351   1.083       .  S
C1347      C1348   1.410       .  A
C1348      F1349   1.357       .  S
