geometry optimzed in LAMMPS
_audit_creation_date              2020-11-30 
_audit_creation_method            'lammps2cif' 
_symmetry_space_group_name_H-M    'P1' 
_symmetry_Int_Tables_number       1 
_symmetry_cell_setting            triclinic 
loop_ 
_symmetry_equiv_pos_as_xyz 
  x,y,z 
_cell_length_a                    31.28347628 
_cell_length_b                    33.63542307357733 
_cell_length_c                    41.32446527236358 
_cell_angle_alpha                 92.05448065805227 
_cell_angle_beta                  90.13438309910927 
_cell_angle_gamma                 89.79715322993286 
loop_ 
_atom_site_label 
_atom_site_type_symbol 
_atom_site_fract_x 
_atom_site_fract_y 
_atom_site_fract_z 
_atom_site_charge 
C1          C  0.66972550  0.74385685  0.99595833     0.80600
N2          N  0.65718461  0.72433611  0.46848282    -0.77700
C3          C  0.63314119  0.69085320  0.46995413     0.83100
N4          N  0.62065003  0.67804346  0.49908356    -0.77600
C5          C  0.63608689  0.69528479  0.02687010     0.83100
N6          N  0.65766007  0.73023255  0.02524980    -0.79400
C7          C  0.22751915  0.82150164  0.99485522     0.80600
N8          N  0.24211751  0.80807331  0.46583615    -0.77700
C9          C  0.27779896  0.78530374  0.46314581     0.83100
N10         N  0.29848778  0.77432702  0.49024375    -0.77600
C11         C  0.28425128  0.78735663  0.01918557     0.83100
N12         N  0.24828740  0.80997225  0.02198052    -0.79400
C13         C  0.59281251  0.29956426  0.99818701     0.80600
N14         N  0.58210275  0.32306479  0.47117372    -0.77700
C15         C  0.54902831  0.34923615  0.47482884     0.83100
N16         N  0.52940738  0.35328034  0.50369591    -0.77600
C17         C  0.53824452  0.32906036  0.02996596     0.83100
N18         N  0.57181140  0.30364535  0.02701425    -0.79400
N19         N  0.91306198  0.99342116  0.99410466    -0.36200
N20         N  0.97094332  0.06174753  0.99964590    -0.56800
N21         N  0.89822782  0.11535917  0.99102263    -0.36200
N22         N  0.83984504  0.04710669  0.99133617    -0.56800
C23         C  0.95021160  0.97444803  0.00021005     0.27400
C24         C  0.88107743  0.96677289  0.99689658     0.27400
C25         C  0.92922042  0.14203828  0.99889951     0.27400
C26         C  0.86020019  0.13444488  0.99401671     0.27400
C27         C  0.00052023  0.03237541  0.99912560     0.36000
C28         C  0.99259759  0.09636054  0.99868941     0.36000
C29         C  0.81885094  0.01212766  0.98768660     0.36000
C30         C  0.81106754  0.07614630  0.98578144     0.36000
C31         C  0.94184424  0.93497524  0.00643524    -0.21500
C32         C  0.89829361  0.93017202  0.00446042    -0.21500
C33         C  0.91070380  0.17878778  0.00612716    -0.21500
C34         C  0.86726244  0.17398929  0.00318016    -0.21500
C35         C  0.04126135  0.04848630  0.99853961    -0.22600
C36         C  0.03624219  0.08900703  0.99831690    -0.22600
C37         C  0.77637847  0.01900331  0.98004946    -0.22600
C38         C  0.77148430  0.05948241  0.97869672    -0.22600
C39         C  0.99162604  0.99121907  0.99968414    -0.17900
C40         C  0.83689697  0.97405075  0.99213054    -0.17900
C41         C  0.81920050  0.11753166  0.98875192    -0.17900
C42         C  0.97380189  0.13462984  0.99930941    -0.17900
H43         H  0.96472704  0.91199804  0.01205109     0.15000
H44         H  0.88129318  0.90274316  0.00816638     0.15000
H45         H  0.92674337  0.20618541  0.01327209     0.15000
H46         H  0.84357246  0.19702718  0.00773272     0.15000
H47         H  0.07149292  0.03272561  0.99839913     0.13300
H48         H  0.06183490  0.11056736  0.99802995     0.13300
H49         H  0.75148494  0.99713747  0.97586406     0.13300
H50         H  0.74201784  0.07485206  0.97327705     0.13300
H51         H  0.91001201  0.02246648  0.98726281     0.26500
H52         H  0.90277799  0.08619398  0.98300075     0.26500
C53         C  0.15024058  0.35788333  0.00102501     0.80600
N54         N  0.16232684  0.37485218  0.47259063    -0.77700
C55         C  0.18359374  0.41000021  0.47295704     0.83100
N56         N  0.19066233  0.42931004  0.00165796    -0.77600
C57         C  0.17902818  0.41308556  0.03002955     0.83100
N58         N  0.15896492  0.37734275  0.02959392    -0.79400
O59         O  0.34962908  0.62047217  0.27865222    -0.79800
O60         O  0.33240260  0.55283333  0.20833246    -0.79800
O61         O  0.38700422  0.62998788  0.20919629    -0.79800
O62         O  0.34755223  0.48624224  0.28351405    -0.79700
O63         O  0.38555749  0.58952975  0.16599501    -0.79800
O64         O  0.31898072  0.54577470  0.28721654    -0.79800
O65         O  0.34832228  0.48986803  0.21781052    -0.76900
O66         O  0.41172601  0.64731798  0.27172942    -0.79800
C67         C  0.37348000  0.65041719  0.28131249     1.09900
C68         C  0.32327283  0.51609190  0.20638051     1.09800
C69         C  0.38137036  0.62413679  0.17831984     1.10000
C70         C  0.31743152  0.50930170  0.29291774     1.09800
O71         O  0.39704733  0.52499010  0.32167904    -0.79800
O72         O  0.45846186  0.57892939  0.19851273    -0.79800
O73         O  0.47393466  0.58599005  0.27263151    -0.79800
O74         O  0.44321600  0.49241394  0.22025474    -0.79700
O75         O  0.40532188  0.51643541  0.18174741    -0.79800
O76         O  0.42829549  0.59717918  0.31293706    -0.79800
O77         O  0.43892543  0.49478080  0.28542441    -0.79700
O78         O  0.47084662  0.63764210  0.22282657    -0.79800
Co79       Co  0.37356433  0.57185410  0.29729817     1.51500
Co80       Co  0.39319473  0.56704789  0.20652950     1.51700
Co81       Co  0.43063232  0.60303604  0.24116778     1.51600
Co82       Co  0.39544589  0.49433610  0.25150109     1.51500
O83         O  0.39635106  0.55484246  0.25330220    -1.41700
C84         C  0.42842575  0.50199407  0.31448099     1.09900
C85         C  0.48038337  0.61159757  0.20108233     1.10000
C86         C  0.46637575  0.59269263  0.30246930     1.09900
C87         C  0.43305618  0.49217929  0.19090390     1.09900
C88         C  0.24958862  0.50103019  0.14399113     0.30100
C89         C  0.23311924  0.50876066  0.11326200    -0.36200
C90         C  0.21430998  0.47645748  0.09638558     0.16100
C91         C  0.21074237  0.43928337  0.10921970     0.21900
C92         C  0.22675318  0.43164796  0.14017116    -0.34300
C93         C  0.24670035  0.46372516  0.15670135     0.16000
O94         O  0.27400031  0.52525832  0.16156374    -0.26300
C95         C  0.28727486  0.50326988  0.18575856     0.05800
C96         C  0.27117997  0.46471952  0.18406445    -0.31200
O97         O  0.19588312  0.41251422  0.08800674    -0.23000
C98         C  0.19041744  0.43271253  0.06117575    -0.03000
C99         C  0.20121795  0.47263983  0.06500176    -0.17500
H100        H  0.23748397  0.53721884  0.10232102     0.20500
H101        H  0.22638064  0.40209841  0.14970870     0.18900
H102        H  0.27947638  0.44010252  0.19906790     0.18800
H103        H  0.20162047  0.49500352  0.04681103     0.14700
C104        C  0.22079080  0.46589594  0.40854107     0.30100
C105        C  0.23368683  0.50009102  0.39267593    -0.36200
C106        C  0.25079957  0.49377225  0.36148835     0.16100
C107        C  0.25582868  0.45634068  0.34717453     0.21900
C108        C  0.24194562  0.42228535  0.36270601    -0.34300
C109        C  0.22410915  0.42865327  0.39360238     0.16000
O110        O  0.20606650  0.46455808  0.43843979    -0.26300
C111        C  0.19911452  0.42599753  0.44242268     0.05800
C112        C  0.20956498  0.40234250  0.41526352    -0.31200
O113        O  0.27759122  0.45685948  0.31982752    -0.23000
C114        C  0.28565257  0.49524667  0.31607971    -0.03000
C115        C  0.26935321  0.51957508  0.34115291    -0.17500
H116        H  0.23176791  0.52943692  0.40422303     0.20500
H117        H  0.24615423  0.39272798  0.35194213     0.18900
H118        H  0.20811398  0.37025982  0.41238651     0.18800
H119        H  0.27429507  0.55117957  0.34539328     0.14700
C120        C  0.08865863  0.27384897  0.01661727     0.30100
C121        C  0.06565940  0.24746799  0.03552730    -0.36200
C122        C  0.04252024  0.21784671  0.01839714     0.16100
C123        C  0.04211848  0.21445614  0.98498628     0.21900
C124        C  0.06520962  0.24068086  0.96614320    -0.34300
C125        C  0.08829325  0.27022568  0.98323946     0.16000
O126        O  0.11128981  0.30459785  0.02741698    -0.26300
C127        C  0.12564421  0.32072738  0.00057927     0.05800
C128        C  0.11243069  0.30049898  0.97240050    -0.31200
O129        O  0.01797319  0.18497578  0.97392474    -0.23000
C130        C  0.00269407  0.16929668  0.00056349    -0.03000
C131        C  0.01685532  0.18837073  0.02898886    -0.17500
H132        H  0.06541962  0.25013664  0.06170444     0.20500
H133        H  0.06484655  0.23844701  0.93995147     0.18900
H134        H  0.11729065  0.30943678  0.44693744     0.18800
H135        H  0.00915662  0.18153008  0.05368883     0.14700
C136        C  0.74150251  0.19118196  0.47645447     0.30100
C137        C  0.72277890  0.22414959  0.46194463    -0.36200
C138        C  0.68563865  0.23948609  0.47683512     0.16100
C139        C  0.66849982  0.22371423  0.50430760     0.21900
C140        C  0.68864232  0.19183080  0.02104426    -0.34300
C141        C  0.72369285  0.17501271  0.50352345     0.16000
O142        O  0.77693918  0.17271688  0.46719027    -0.26300
C143        C  0.78207407  0.14498487  0.98926436     0.05800
C144        C  0.75105816  0.14558271  0.01328544    -0.31200
O145        O  0.63479831  0.24335150  0.01697843    -0.23000
C146        C  0.62841988  0.27105673  0.99528239    -0.03000
C147        C  0.66021877  0.27093170  0.46940663    -0.17500
H148        H  0.73641021  0.23713194  0.44073517     0.20500
H149        H  0.67616484  0.17949847  0.04292268     0.18900
H150        H  0.74857167  0.12651325  0.03374150     0.18800
H151        H  0.66374673  0.29086905  0.44960987     0.14700
C152        C  0.51005991  0.36674341  0.10581208     0.30100
C153        C  0.51888325  0.38706489  0.13533900    -0.36200
C154        C  0.48762569  0.41440104  0.14624218     0.16100
C155        C  0.45052804  0.42133073  0.12911967     0.21900
C156        C  0.44108230  0.40019572  0.10036361    -0.34300
C157        C  0.47197022  0.37273780  0.08970236     0.16000
O158        O  0.53760094  0.34558160  0.08810788    -0.26300
C159        C  0.51647040  0.33775940  0.06063720     0.05800
C160        C  0.47522188  0.35316205  0.06075146    -0.31200
O161        O  0.42725709  0.45015998  0.14221509    -0.23000
C162        C  0.44935373  0.46159235  0.16832148    -0.03000
C163        C  0.48705086  0.44029812  0.17233876    -0.17500
H164        H  0.54900111  0.38361724  0.14788412     0.20500
H165        H  0.41265436  0.40626993  0.08636171     0.18900
H166        H  0.45331263  0.35487568  0.04050655     0.18800
H167        H  0.51075155  0.44391598  0.19132876     0.14700
C168        C  0.52201431  0.39949474  0.40437112     0.30100
C169        C  0.52168380  0.40857356  0.37149304    -0.36200
C170        C  0.49284088  0.43846682  0.36266515     0.16100
C171        C  0.46605200  0.45801622  0.38453720     0.21900
C172        C  0.46647744  0.44908577  0.41728621    -0.34300
C173        C  0.49525739  0.41938480  0.42604482     0.16000
O174        O  0.54556739  0.37197598  0.41817845    -0.26300
C175        C  0.53342082  0.37457240  0.44902616     0.05800
C176        C  0.50235343  0.40359782  0.45509916    -0.31200
O177        O  0.44045788  0.48374539  0.37083280    -0.23000
C178        C  0.45113140  0.48080050  0.33975275    -0.03000
C179        C  0.48357223  0.45319440  0.33328960    -0.17500
H180        H  0.54199656  0.39312109  0.35397026     0.20500
H181        H  0.44538523  0.46382937  0.43467238     0.18900
H182        H  0.48669235  0.41160480  0.47776552     0.18800
H183        H  0.49733818  0.44437650  0.31010769     0.14700
C184        C  0.07957331  0.92958081  0.01452306     0.30100
C185        C  0.11161111  0.91161034  0.03283609    -0.36200
C186        C  0.13944004  0.88596697  0.01555503     0.16100
C187        C  0.13603565  0.87871666  0.98254735     0.21900
C188        C  0.10379459  0.89630721  0.96432087    -0.34300
C189        C  0.07593825  0.92177274  0.98158157     0.16000
O190        O  0.05056847  0.95515443  0.02549223    -0.26300
C191        C  0.02816717  0.96347671  0.99919930     0.05800
C192        C  0.04232562  0.94359078  0.97124182    -0.31200
O193        O  0.16639913  0.85380685  0.47140121    -0.23000
C194        C  0.18914837  0.84646484  0.99713466    -0.03000
C195        C  0.17394784  0.86484372  0.02553167    -0.17500
H196        H  0.11487220  0.91751525  0.05863910     0.20500
H197        H  0.10035433  0.88831061  0.43832566     0.18900
H198        H  0.02924405  0.94320349  0.44594575     0.18800
H199        H  0.18698811  0.86353055  0.04975667     0.14700
C200        C  0.34417959  0.70611062  0.13571364     0.30100
C201        C  0.31744929  0.73843159  0.12839643    -0.36200
C202        C  0.31772007  0.74991598  0.09590822     0.16100
C203        C  0.34331823  0.73136405  0.07270057     0.21900
C204        C  0.37023208  0.69979426  0.08004446    -0.34300
C205        C  0.36915629  0.68784033  0.11198394     0.16000
O206        O  0.34593026  0.68732898  0.16336973    -0.26300
C207        C  0.37184426  0.65659077  0.15662360     0.05800
C208        C  0.38724737  0.65572099  0.12519321    -0.31200
O209        O  0.33604722  0.74375700  0.04345199    -0.23000
C210        C  0.30519432  0.77060377  0.04748418    -0.03000
C211        C  0.29251945  0.77602808  0.07970303    -0.17500
H212        H  0.29623372  0.75210107  0.14623322     0.20500
H213        H  0.38883813  0.68402528  0.06159862     0.18900
H214        H  0.40754363  0.63347698  0.11338278     0.18800
H215        H  0.26681679  0.79448879  0.08935504     0.14700
C216        C  0.29561860  0.75153481  0.38305983     0.30100
C217        C  0.28443492  0.73554895  0.35234352    -0.36200
C218        C  0.31815468  0.71940794  0.33367247     0.16100
C219        C  0.36011615  0.72005217  0.34415378     0.21900
C220        C  0.37125296  0.73612159  0.37472442    -0.34300
C221        C  0.33747672  0.75109817  0.39370669     0.16000
O222        O  0.26892300  0.76479756  0.40571626    -0.26300
C223        C  0.29409148  0.77229619  0.43121749     0.05800
C224        C  0.33694138  0.76419775  0.42516327    -0.31200
O225        O  0.38569912  0.69912858  0.32484636    -0.23000
C226        C  0.35993461  0.68443709  0.30183571    -0.03000
C227        C  0.31751758  0.69611846  0.30599359    -0.17500
H228        H  0.25148868  0.73357610  0.34441299     0.20500
H229        H  0.40362255  0.73459459  0.38392029     0.18900
H230        H  0.36362586  0.76661265  0.44183631     0.18800
H231        H  0.28979720  0.68565287  0.29251739     0.14700
C232        C  0.72743737  0.83268823  0.50987741     0.30100
C233        C  0.74511635  0.86460089  0.52816214    -0.36200
C234        C  0.76921080  0.89183868  0.51089784     0.16100
C235        C  0.77570851  0.88787049  0.47790152     0.21900
C236        C  0.75797652  0.85598324  0.45960844    -0.34300
C237        C  0.73369487  0.82884603  0.47686455     0.16000
O238        O  0.70385292  0.80377521  0.52109003    -0.26300
C239        C  0.69415888  0.78121875  0.99429730     0.05800
C240        C  0.71245271  0.79532248  0.46670022    -0.31200
O241        O  0.80348048  0.91395471  0.96723495    -0.23000
C242        C  0.80771836  0.93943504  0.99239998    -0.03000
C243        C  0.78420274  0.92892544  0.01927813    -0.17500
H244        H  0.74048737  0.86791257  0.55406547     0.20500
H245        H  0.76288317  0.85250350  0.43374427     0.18900
H246        H  0.71012864  0.78270136  0.44229596     0.18800
H247        H  0.78277961  0.94400379  0.04283213     0.14700
C248        C  0.59099566  0.64181818  0.08937825     0.30100
C249        C  0.56778839  0.61040010  0.10217294    -0.36200
C250        C  0.55167048  0.61699799  0.13354760     0.16100
C251        C  0.55809456  0.65209450  0.15119399     0.21900
C252        C  0.58218849  0.68319420  0.13864518    -0.34300
C253        C  0.59818271  0.67666796  0.10716646     0.16000
O254        O  0.60478718  0.64354042  0.05937525    -0.26300
C255        C  0.62139166  0.67981523  0.05782731     0.05800
C256        C  0.61851229  0.70173407  0.08696199    -0.31200
O257        O  0.53584766  0.65378900  0.17831440    -0.23000
C258        C  0.51512219  0.61925608  0.17816564    -0.03000
C259        C  0.52403882  0.59503831  0.15099736    -0.17500
H260        H  0.56077456  0.58354577  0.08796218     0.20500
H261        H  0.58615645  0.71134534  0.15180201     0.18900
H262        H  0.62747344  0.73241562  0.09186306     0.18800
H263        H  0.50949527  0.56689497  0.14386648     0.14700
C264        C  0.55250203  0.62669387  0.34951393     0.30100
C265        C  0.58550338  0.65323019  0.35852429    -0.36200
C266        C  0.59658918  0.65487682  0.39154793     0.16100
C267        C  0.57691484  0.63145074  0.41383367     0.21900
C268        C  0.54435544  0.60487087  0.40485646    -0.34300
C269        C  0.53284230  0.60377736  0.37216684     0.16000
O270        O  0.53356392  0.62361713  0.32091945    -0.26300
C271        C  0.50144103  0.59860146  0.32560371     0.05800
C272        C  0.49944464  0.58543828  0.35699161    -0.31200
O273        O  0.58902680  0.64006509  0.44368489    -0.23000
C274        C  0.61673508  0.66957156  0.44087362    -0.03000
C275        C  0.62304915  0.68002551  0.40891507    -0.17500
H276        H  0.59979925  0.67277535  0.34137917     0.20500
H277        H  0.52746334  0.58789287  0.42251960     0.18900
H278        H  0.47507139  0.56724349  0.36760398     0.18800
H279        H  0.64213040  0.70409872  0.40006646     0.14700
C280        C  0.66847800  0.74480957  0.49629438     0.80600
N281        N  0.65904411  0.72286290  0.96827208    -0.77700
C282        C  0.63692140  0.68826107  0.96991418     0.83100
N283        N  0.62591954  0.67470205  0.99919621    -0.77600
C284        C  0.63129677  0.69812771  0.52682825     0.83100
N285        N  0.65506613  0.73183010  0.52548370    -0.79400
C286        C  0.22774015  0.82067706  0.49548990     0.80600
N287        N  0.24246247  0.80998354  0.96511354    -0.77700
C288        C  0.27873435  0.78806428  0.96232764     0.83100
N289        N  0.29941196  0.77684946  0.98936509    -0.77600
C290        C  0.28395626  0.78585888  0.52003971     0.83100
N291        N  0.24855681  0.80937114  0.52272615    -0.79400
C292        C  0.59483496  0.30141670  0.49695638     0.80600
N293        N  0.58080711  0.32195725  0.97265559    -0.77700
C294        C  0.54739669  0.34778562  0.97615414     0.83100
N295        N  0.52658557  0.35067359  0.00461461    -0.77600
C296        C  0.54183032  0.33251141  0.52929959     0.83100
N297        N  0.57492801  0.30658948  0.52616777    -0.79400
N298        N  0.91382840  0.99361294  0.49330662    -0.36200
N299        N  0.97106549  0.06232544  0.49800585    -0.56800
N300        N  0.89765872  0.11531320  0.49058151    -0.36200
N301        N  0.84003437  0.04667737  0.49138917    -0.56800
C302        C  0.95121333  0.97521234  0.49975999     0.27400
C303        C  0.88208688  0.96705006  0.49748859     0.27400
C304        C  0.92845024  0.14206171  0.49877480     0.27400
C305        C  0.85946833  0.13390720  0.49436681     0.27400
C306        C  0.00086701  0.03316672  0.49612170     0.36000
C307        C  0.99222691  0.09708937  0.49593371     0.36000
C308        C  0.81958951  0.01147802  0.48722245     0.36000
C309        C  0.81111395  0.07539619  0.48524375     0.36000
C310        C  0.94323528  0.93619584  0.50763351    -0.21500
C311        C  0.89968142  0.93107556  0.50628358    -0.21500
C312        C  0.90960206  0.17832758  0.50720888    -0.21500
C313        C  0.86615756  0.17317012  0.50453281    -0.21500
C314        C  0.04127681  0.04954833  0.49345000    -0.22600
C315        C  0.03580923  0.09004432  0.49339288    -0.22600
C316        C  0.77731051  0.01787957  0.47875899    -0.22600
C317        C  0.77199379  0.05832116  0.47732098    -0.22600
C318        C  0.99249179  0.99202300  0.49780925    -0.17900
C319        C  0.83787542  0.97370017  0.49238543    -0.17900
C320        C  0.81870254  0.11682996  0.48852213    -0.17900
C321        C  0.97311417  0.13520366  0.49791202    -0.17900
H322        H  0.96640035  0.91369719  0.51379312     0.15000
H323        H  0.88295735  0.90380038  0.51106226     0.15000
H324        H  0.92543403  0.20567985  0.51476353     0.15000
H325        H  0.84222186  0.19578779  0.50977961     0.15000
H326        H  0.07158911  0.03398316  0.49192119     0.13300
H327        H  0.06107596  0.11179785  0.49186667     0.13300
H328        H  0.75282543  0.99572694  0.47413468     0.13300
H329        H  0.74255396  0.07339486  0.47133389     0.13300
H330        H  0.91046579  0.02209367  0.48507047     0.26500
H331        H  0.90241877  0.08653098  0.48157294     0.26500
C332        C  0.14911127  0.35910419  0.50067121     0.80600
N333        N  0.16284446  0.37377012  0.97285142    -0.77700
C334        C  0.18300424  0.40946448  0.97301743     0.83100
N335        N  0.19171392  0.42944699  0.50170631    -0.77600
C336        C  0.17948590  0.41335172  0.52998705     0.83100
N337        N  0.15834063  0.37813398  0.52934914    -0.79400
O338        O  0.35053811  0.62015910  0.78041767    -0.79800
O339        O  0.33146464  0.55216601  0.71007529    -0.79800
O340        O  0.38751974  0.62968676  0.71076260    -0.79800
O341        O  0.34669151  0.48604977  0.78462062    -0.79700
O342        O  0.38411927  0.58914753  0.66762321    -0.79800
O343        O  0.31885507  0.54593190  0.78872694    -0.79800
O344        O  0.34790509  0.48922509  0.71897402    -0.76900
O345        O  0.41297342  0.64622198  0.77343703    -0.79800
C346        C  0.37477908  0.64981799  0.78293128     1.09900
C347        C  0.32260465  0.51538482  0.70776042     1.09800
C348        C  0.38119851  0.62389173  0.67991984     1.10000
C349        C  0.31666657  0.50934179  0.79388932     1.09800
O350        O  0.39658209  0.52397711  0.82309649    -0.79800
O351        O  0.45741048  0.57855650  0.69948862    -0.79800
O352        O  0.47429013  0.58427238  0.77380862    -0.79800
O353        O  0.44279749  0.49166782  0.72157854    -0.79700
O354        O  0.40477344  0.51613335  0.68322683    -0.79800
O355        O  0.42924119  0.59567526  0.81446669    -0.79800
O356        O  0.43834404  0.49374334  0.78683317    -0.79700
O357        O  0.47128662  0.63655453  0.72455629    -0.79800
Co358      Co  0.37387674  0.57119937  0.79884162     1.51500
Co359      Co  0.39223560  0.56659803  0.70804046     1.51700
Co360      Co  0.43098182  0.60199688  0.74263215     1.51600
Co361      Co  0.39491635  0.49367359  0.75278964     1.51500
O362        O  0.39616542  0.55415948  0.75469249    -1.41700
C363        C  0.42803904  0.50110659  0.81591752     1.09900
C364        C  0.47975426  0.61095877  0.70224033     1.10000
C365        C  0.46719666  0.59105169  0.80370149     1.09900
C366        C  0.43304673  0.49223925  0.69215359     1.09900
C367        C  0.24933945  0.50035603  0.64498199     0.30100
C368        C  0.23295444  0.50833018  0.61425292    -0.36200
C369        C  0.21489938  0.47597964  0.59689874     0.16100
C370        C  0.21193300  0.43852204  0.60928908     0.21900
C371        C  0.22792047  0.43061390  0.64020407    -0.34300
C372        C  0.24709266  0.46276074  0.65722042     0.16000
O373        O  0.27316284  0.52469785  0.66296706    -0.26300
C374        C  0.28673077  0.50248969  0.68695137     0.05800
C375        C  0.27133304  0.46369501  0.68471552    -0.31200
O376        O  0.19728705  0.41192975  0.58782097    -0.23000
C377        C  0.19135263  0.43252568  0.56124715    -0.03000
C378        C  0.20171960  0.47252478  0.56549556    -0.17500
H379        H  0.23676047  0.53708744  0.60369375     0.20500
H380        H  0.22799008  0.40089233  0.64941395     0.18900
H381        H  0.28003231  0.43891829  0.69942269     0.18800
H382        H  0.20150541  0.49526017  0.54760823     0.14700
C383        C  0.21771729  0.46563400  0.90798882     0.30100
C384        C  0.22938232  0.49993525  0.89173211    -0.36200
C385        C  0.24727198  0.49358413  0.86078710     0.16100
C386        C  0.25400711  0.45606513  0.84706445     0.21900
C387        C  0.24122745  0.42190948  0.86291867    -0.34300
C388        C  0.22276671  0.42826612  0.89357314     0.16000
O389        O  0.20300156  0.46430597  0.93789802    -0.26300
C390        C  0.19783184  0.42559054  0.94236164     0.05800
C391        C  0.20940922  0.40185894  0.91554219    -0.31200
O392        O  0.27674535  0.45667188  0.82020653    -0.23000
C393        C  0.28387635  0.49514491  0.81616801    -0.03000
C394        C  0.26577666  0.51949956  0.84050318    -0.17500
H395        H  0.22628194  0.52939589  0.90291431     0.20500
H396        H  0.24698086  0.39231530  0.85267733     0.18900
H397        H  0.20953292  0.36970660  0.91311178     0.18800
H398        H  0.26979862  0.55125132  0.84453740     0.14700
C399        C  0.08663571  0.27538217  0.51579561     0.30100
C400        C  0.06373468  0.24876580  0.53456124    -0.36200
C401        C  0.04092647  0.21902503  0.51729338     0.16100
C402        C  0.04072810  0.21572634  0.48388077     0.21900
C403        C  0.06371888  0.24219798  0.46517516    -0.34300
C404        C  0.08647426  0.27187393  0.48241375     0.16000
O405        O  0.10924326  0.30608130  0.52675684    -0.26300
C406        C  0.12380115  0.32231420  0.50002032     0.05800
C407        C  0.11069309  0.30220995  0.47174513    -0.31200
O408        O  0.01693584  0.18603930  0.47269052    -0.23000
C409        C  0.00165304  0.17015479  0.49925474    -0.03000
C410        C  0.01551167  0.18928270  0.52774616    -0.17500
H411        H  0.06340086  0.25129234  0.56074266     0.20500
H412        H  0.06358787  0.24000137  0.43898167     0.18900
H413        H  0.11867988  0.30775327  0.94754642     0.18800
H414        H  0.00779013  0.18229328  0.55241034     0.14700
C415        C  0.74176534  0.19196556  0.97782649     0.30100
C416        C  0.72217237  0.22439806  0.96318489    -0.36200
C417        C  0.68526548  0.23960821  0.97848218     0.16100
C418        C  0.66918107  0.22428286  0.00648882     0.21900
C419        C  0.68690170  0.19055006  0.51857295    -0.34300
C420        C  0.72513699  0.17633866  0.00554058     0.16000
O421        O  0.77672954  0.17324327  0.96786229    -0.26300
C422        C  0.78139217  0.14406146  0.48836133     0.05800
C423        C  0.74927954  0.14412001  0.51152879    -0.31200
O424        O  0.63456279  0.24342017  0.51486197    -0.23000
C425        C  0.62948781  0.27196600  0.49371637    -0.03000
C426        C  0.65877093  0.27012796  0.97070226    -0.17500
H427        H  0.73477871  0.23685490  0.94140267     0.20500
H428        H  0.67367142  0.17796824  0.54009702     0.18900
H429        H  0.74601241  0.12477916  0.53174688     0.18800
H430        H  0.66119363  0.28938170  0.95036097     0.14700
C431        C  0.51391514  0.37086603  0.60518003     0.30100
C432        C  0.52229175  0.39081222  0.63496706    -0.36200
C433        C  0.49052237  0.41754507  0.64608324     0.16100
C434        C  0.45349560  0.42436574  0.62883784     0.21900
C435        C  0.44458665  0.40370413  0.59979465    -0.34300
C436        C  0.47584105  0.37672403  0.58902498     0.16000
O437        O  0.54157480  0.34977207  0.58748984    -0.26300
C438        C  0.52042355  0.34181871  0.56003396     0.05800
C439        C  0.47914621  0.35712563  0.56012805    -0.31200
O440        O  0.42935039  0.45219877  0.64239516    -0.23000
C441        C  0.45072252  0.46306472  0.66897279    -0.03000
C442        C  0.48893142  0.44246455  0.67279079    -0.17500
H443        H  0.55224905  0.38728974  0.64771290     0.20500
H444        H  0.41606246  0.40953117  0.58582838     0.18900
H445        H  0.45708511  0.35852333  0.53995167     0.18800
H446        H  0.51214642  0.44572262  0.69215631     0.14700
C447        C  0.52260659  0.39989031  0.90620839     0.30100
C448        C  0.52201519  0.40862719  0.87326621    -0.36200
C449        C  0.49350773  0.43876605  0.86441198     0.16100
C450        C  0.46731289  0.45893658  0.88633815     0.21900
C451        C  0.46824095  0.45056097  0.91922237    -0.34300
C452        C  0.49663114  0.42051480  0.92800065     0.16000
O453        O  0.54516887  0.37157813  0.91985976    -0.26300
C454        C  0.53320340  0.37435886  0.95073590     0.05800
C455        C  0.50330832  0.40439281  0.95702166    -0.31200
O456        O  0.44138628  0.48430217  0.87250680    -0.23000
C457        C  0.45127560  0.48049733  0.84129624    -0.03000
C458        C  0.48358760  0.45275341  0.83489132    -0.17500
H459        H  0.54157313  0.39245211  0.85565890     0.20500
H460        H  0.44747195  0.46566657  0.93663755     0.18900
H461        H  0.48780677  0.41255039  0.97971972     0.18800
H462        H  0.49670594  0.44322461  0.81165837     0.14700
C463        C  0.08146019  0.93170962  0.51322131     0.30100
C464        C  0.11403587  0.91474529  0.53169417    -0.36200
C465        C  0.14126048  0.88793817  0.51498127     0.16100
C466        C  0.13684614  0.87874688  0.48231886     0.21900
C467        C  0.10410164  0.89539468  0.46392983    -0.34300
C468        C  0.07678371  0.92195197  0.48065464     0.16000
O469        O  0.05267640  0.95780010  0.52374168    -0.26300
C470        C  0.02931413  0.96450726  0.49756357     0.05800
C471        C  0.04266549  0.94302557  0.47010516    -0.31200
O472        O  0.16623485  0.85486505  0.97112186    -0.23000
C473        C  0.18991225  0.84658932  0.49740981    -0.03000
C474        C  0.17575284  0.86693465  0.52528884    -0.17500
H475        H  0.11800111  0.92208227  0.55723487     0.20500
H476        H  0.10093295  0.89086163  0.93843361     0.18900
H477        H  0.02979651  0.94533634  0.94689557     0.18800
H478        H  0.18934541  0.86681135  0.54939519     0.14700
C479        C  0.34595292  0.70656925  0.63712556     0.30100
C480        C  0.31984990  0.73935546  0.62978573    -0.36200
C481        C  0.31934159  0.75010447  0.59708456     0.16100
C482        C  0.34376981  0.73048004  0.57370995     0.21900
C483        C  0.37026259  0.69859690  0.58109286    -0.34300
C484        C  0.36984668  0.68732780  0.61323640     0.16000
O485        O  0.34766305  0.68805778  0.66493236    -0.26300
C486        C  0.37246186  0.65652531  0.65814271     0.05800
C487        C  0.38722662  0.65490531  0.62652050    -0.31200
O488        O  0.33562179  0.74209804  0.54435065    -0.23000
C489        C  0.30535074  0.76953426  0.54842796    -0.03000
C490        C  0.29399464  0.77614735  0.58083866    -0.17500
H491        H  0.29941121  0.75377590  0.64777566     0.20500
H492        H  0.38784581  0.68197734  0.56253707     0.18900
H493        H  0.40645751  0.63191134  0.61461031     0.18800
H494        H  0.26897758  0.79530020  0.59065477     0.14700
C495        C  0.29711596  0.75414165  0.88246994     0.30100
C496        C  0.28608477  0.73746267  0.85196709    -0.36200
C497        C  0.31983387  0.72056258  0.83379380     0.16100
C498        C  0.36168246  0.72103926  0.84455194     0.21900
C499        C  0.37268851  0.73789892  0.87486253    -0.34300
C500        C  0.33888892  0.75375119  0.89332872     0.16000
O501        O  0.27028010  0.76775462  0.90488389    -0.26300
C502        C  0.29529812  0.77560277  0.93040228     0.05800
C503        C  0.33817026  0.76742664  0.92460586    -0.31200
O504        O  0.38720292  0.69928712  0.82582350    -0.23000
C505        C  0.36149123  0.68431848  0.80290408    -0.03000
C506        C  0.31920781  0.69658247  0.80652838    -0.17500
H507        H  0.25319406  0.73546059  0.84390600     0.20500
H508        H  0.40492098  0.73626526  0.88431759     0.18900
H509        H  0.36468545  0.76977670  0.94143839     0.18800
H510        H  0.29152472  0.68611605  0.79300792     0.14700
C511        C  0.72315787  0.83502907  0.00849110     0.30100
C512        C  0.73745428  0.86901863  0.02603440    -0.36200
C513        C  0.76444140  0.89451881  0.00937229     0.16100
C514        C  0.77687588  0.88691474  0.97770871     0.21900
C515        C  0.76224012  0.85316403  0.96008088    -0.34300
C516        C  0.73491466  0.82788708  0.97663878     0.16000
O517        O  0.69857114  0.80668941  0.01951702    -0.26300
C518        C  0.69469525  0.78112345  0.49491282     0.05800
C519        C  0.71593037  0.79303566  0.96692523    -0.31200
O520        O  0.80006021  0.91632028  0.46682876    -0.23000
C521        C  0.80903098  0.93887257  0.49306292    -0.03000
C522        C  0.79073501  0.92513612  0.52116175    -0.17500
H523        H  0.72848985  0.87497294  0.05102373     0.20500
H524        H  0.77180130  0.84685980  0.93526709     0.18900
H525        H  0.71820395  0.77769149  0.94351361     0.18800
H526        H  0.79365796  0.93751843  0.54559845     0.14700
C527        C  0.58424600  0.64475196  0.58838163     0.30100
C528        C  0.56080908  0.61329503  0.60077984    -0.36200
C529        C  0.54692795  0.61853927  0.63283851     0.16100
C530        C  0.55545412  0.65249363  0.65144852     0.21900
C531        C  0.57966536  0.68371401  0.63919181    -0.34300
C532        C  0.59358787  0.67847222  0.60702954     0.16000
O533        O  0.59719901  0.64724749  0.55827924    -0.26300
C534        C  0.61549147  0.68284761  0.55747305     0.05800
C535        C  0.61439832  0.70368265  0.58718537    -0.31200
O536        O  0.53506016  0.65310898  0.67937517    -0.23000
C537        C  0.51351322  0.61900190  0.67871804    -0.03000
C538        C  0.52001129  0.59613646  0.65045256    -0.17500
H539        H  0.55231678  0.58731656  0.58595921     0.20500
H540        H  0.58547802  0.71094911  0.65322563     0.18900
H541        H  0.62541228  0.73359494  0.59287174     0.18800
H542        H  0.50424084  0.56875504  0.64283205     0.14700
C543        C  0.55414227  0.62533802  0.84989057     0.30100
C544        C  0.58677934  0.65231649  0.85881490    -0.36200
C545        C  0.59916046  0.65305556  0.89158110     0.16100
C546        C  0.58108887  0.62836621  0.91371121     0.21900
C547        C  0.54891308  0.60130023  0.90478244    -0.34300
C548        C  0.53602276  0.60114835  0.87236794     0.16000
O549        O  0.53412179  0.62289950  0.82169075    -0.26300
C550        C  0.50280103  0.59702793  0.82642688     0.05800
C551        C  0.50240609  0.58268789  0.85749102    -0.31200
O552        O  0.59397293  0.63643354  0.94350461    -0.23000
C553        C  0.62056933  0.66684964  0.94080067    -0.03000
C554        C  0.62537087  0.67841796  0.90896025    -0.17500
H555        H  0.59978000  0.67286729  0.84187566     0.20500
H556        H  0.53318402  0.58331574  0.92237430     0.18900
H557        H  0.47894582  0.56357569  0.86816509     0.18800
H558        H  0.64315087  0.70341975  0.90026958     0.14700
loop_ 
_geom_bond_atom_site_label_1 
_geom_bond_atom_site_label_2 
_geom_bond_distance 
_geom_bond_site_symmetry_2 
_ccdc_geom_bond_type 
C1            N6   1.364   1_556  A
C1          N281   1.364       .  A
C1          C239   1.477       .  S
N2            C3   1.360       .  A
N2          C280   1.365       .  A
C3            N4   1.352       .  A
C3          C274   1.469       .  S
N4          C284   1.351       .  A
C5            N6   1.361       .  A
C5          N283   1.353   1_554  A
C5          C255   1.473       .  S
C7           N12   1.362   1_556  A
C7          N287   1.359       .  A
C7          C194   1.464       .  S
N8            C9   1.354       .  A
N8          C286   1.359       .  A
C9           N10   1.354       .  A
C9          C223   1.467       .  S
N10         C290   1.357       .  A
C11          N12   1.359       .  A
C11         N289   1.356   1_554  A
C11         C210   1.468       .  S
C13          N18   1.364   1_556  A
C13         N293   1.369       .  A
C13         C146   1.470       .  S
N14          C15   1.361       .  A
N14         C292   1.370       .  A
C15          N16   1.345       .  A
C15         C175   1.470       .  S
N16         C296   1.344       .  A
C17          N18   1.355       .  A
C17         N295   1.345       .  A
C17         C159   1.460       .  S
N19          C24   1.354       .  A
N19          C23   1.351   1_556  A
N19          H51   1.031   1_565  S
N20          C27   1.351   1_655  A
N20          C28   1.351       .  A
N21          C26   1.354       .  A
N21          C25   1.355       .  A
N21          H52   1.034       .  S
N22          C29   1.353       .  A
N22          C30   1.351       .  A
C23          C31   1.387       .  A
C23          C39   1.415   1_554  A
C24          C40   1.417       .  A
C24          C32   1.388   1_556  A
C25          C33   1.386   1_556  A
C25          C42   1.416       .  A
C26          C41   1.418       .  A
C26          C34   1.388   1_556  A
C27          C39   1.414   1_445  A
C27          C35   1.387       .  A
C28          C42   1.413       .  A
C28          C36   1.387   1_655  A
C29          C37   1.385       .  A
C29          C40   1.416   1_545  A
C30          C38   1.387       .  A
C30          C41   1.417       .  A
C31          C32   1.374       .  A
C31          H43   1.082       .  S
C32          H44   1.082       .  S
C33          C34   1.374       .  A
C33          H45   1.082       .  S
C34          H46   1.082       .  S
C35          C36   1.372       .  A
C35          H47   1.082       .  S
C36          H48   1.083       .  S
C37          C38   1.373       .  A
C37          H49   1.082   1_545  S
C38          H50   1.082       .  S
C39         C191   1.473   1_655  S
C40         C242   1.482       .  S
C41         C143   1.481       .  S
C42         C130   1.477   1_656  S
C53          N58   1.357       .  A
C53         N333   1.358   1_554  A
C53         C127   1.469       .  S
N54          C55   1.358       .  A
N54         C332   1.359       .  A
C55         N335   1.359       .  A
C55         C111   1.473       .  S
N56          C57   1.362       .  A
N56         C334   1.359   1_554  A
C57          N58   1.358       .  A
C57          C98   1.469       .  S
O59          C67   1.257       .  A
O59         Co79   1.977       .  S
O60          C68   1.269       .  A
O60         Co80   1.965       .  S
O61          C69   1.296       .  A
O61         Co81   2.121       .  S
O62          C70   1.271       .  A
O62         Co82   2.027       .  S
O63          C69   1.260       .  A
O63         Co80   1.877       .  S
O64          C70   1.259       .  A
O64         Co79   1.960       .  S
O65          C68   1.280       .  A
O65         Co82   2.028       .  S
O66          C67   1.264       .  A
O66         Co81   2.006       .  S
C67         C226   1.462       .  S
C68          C95   1.467       .  S
C69         C207   1.467       .  S
C70         C114   1.472       .  S
O71          C84   1.277       .  A
O71         Co79   2.035       .  S
O72          C85   1.298       .  A
O72         Co80   2.111       .  S
O73          C86   1.268       .  A
O73         Co81   1.973       .  S
O74          C87   1.253       .  A
O74         Co82   1.977       .  S
O75          C87   1.256       .  A
O75         Co80   1.991       .  S
O76          C86   1.275       .  A
O76         Co79   2.010       .  S
O77          C84   1.261       .  A
O77         Co82   1.951       .  S
O78          C85   1.268       .  A
O78         Co81   1.895       .  S
Co79         O83   2.017       .  S
Co80         O83   1.992       .  S
Co81         O83   2.025       .  S
Co82         O83   2.034       .  S
C84         C178   1.466       .  S
C85         C258   1.473       .  S
C86         C271   1.463       .  S
C87         C162   1.456       .  S
C88          C93   1.381       .  A
C88          C89   1.402       .  A
C88          O94   1.317       .  A
C89          C90   1.401       .  A
C89         H100   1.082       .  S
C90          C99   1.361       .  A
C90          C91   1.381       .  A
C91          C92   1.404       .  A
C91          O97   1.319       .  A
C92          C93   1.404       .  A
C92         H101   1.082       .  S
C93          C96   1.364       .  A
O94          C95   1.330       .  A
C95          C96   1.392       .  A
C96         H102   1.083       .  S
O97          C98   1.331       .  A
C98          C99   1.389       .  A
C99         H103   1.082       .  S
C104        C109   1.380       .  A
C104        C105   1.405       .  A
C104        O110   1.322       .  A
C105        C106   1.406       .  A
C105        H116   1.082       .  S
C106        C115   1.362       .  A
C106        C107   1.380       .  A
C107        C108   1.404       .  A
C107        O113   1.321       .  A
C108        C109   1.404       .  A
C108        H117   1.082       .  S
C109        C112   1.361       .  A
O110        C111   1.332       .  A
C111        C112   1.391       .  A
C112        H118   1.083       .  S
O113        C114   1.331       .  A
C114        C115   1.394       .  A
C115        H119   1.083       .  S
C120        C125   1.380   1_554  A
C120        C121   1.404       .  A
C120        O126   1.319       .  A
C121        C122   1.404       .  A
C121        H132   1.082       .  S
C122        C131   1.363       .  A
C122        C123   1.381   1_554  A
C123        C124   1.401       .  A
C123        O129   1.317       .  A
C124        C125   1.400       .  A
C124        H133   1.082       .  S
C125        C128   1.359       .  A
O126        C127   1.332       .  A
C127        C128   1.390   1_554  A
C128        H413   1.083       .  S
O129        C130   1.328   1_556  A
C130        C131   1.390       .  A
C131        H135   1.082       .  S
H134        C407   1.083       .  S
C136        C141   1.381       .  A
C136        C137   1.405       .  A
C136        O142   1.320       .  A
C137        C138   1.404       .  A
C137        H148   1.082       .  S
C138        C147   1.364       .  A
C138        C139   1.381       .  A
C139        C419   1.402       .  A
C139        O424   1.316       .  A
C140        C418   1.402       .  A
C140        C420   1.400       .  A
C140        H149   1.082       .  S
C141        C419   1.400       .  A
C141        C423   1.359       .  A
O142        C422   1.331       .  A
C143        C144   1.389   1_556  A
C143        O421   1.331       .  A
C144        C420   1.359       .  A
C144        H150   1.082       .  S
O145        C146   1.330   1_554  A
O145        C418   1.317       .  A
C146        C426   1.392       .  A
C147        C425   1.392       .  A
C147        H151   1.082       .  S
C152        C157   1.381       .  A
C152        C153   1.404       .  A
C152        O158   1.321       .  A
C153        C154   1.404       .  A
C153        H164   1.082       .  S
C154        C163   1.362       .  A
C154        C155   1.381       .  A
C155        C156   1.394       .  A
C155        O161   1.312       .  A
C156        C157   1.395       .  A
C156        H165   1.083       .  S
C157        C160   1.349       .  A
O158        C159   1.331       .  A
C159        C160   1.389       .  A
C160        H166   1.083       .  S
O161        C162   1.326       .  A
C162        C163   1.390       .  A
C163        H167   1.082       .  S
C168        C173   1.381       .  A
C168        C169   1.403       .  A
C168        O174   1.325       .  A
C169        C170   1.406       .  A
C169        H180   1.082       .  S
C170        C179   1.358       .  A
C170        C171   1.382       .  A
C171        C172   1.397       .  A
C171        O177   1.319       .  A
C172        C173   1.399       .  A
C172        H181   1.083       .  S
C173        C176   1.348       .  A
O174        C175   1.331       .  A
C175        C176   1.392       .  A
C176        H182   1.083       .  S
O177        C178   1.328       .  A
C178        C179   1.393       .  A
C179        H183   1.083       .  S
C184        C189   1.382   1_554  A
C184        C185   1.403       .  A
C184        O190   1.318       .  A
C185        C186   1.402       .  A
C185        H196   1.082       .  S
C186        C195   1.361       .  A
C186        C187   1.381   1_554  A
C187        C188   1.400       .  A
C187        O472   1.315       .  A
C188        C189   1.398       .  A
C188        H476   1.082       .  S
C189        C192   1.357       .  A
O190        C191   1.329   1_554  A
C191        C192   1.387       .  A
C192        H477   1.082       .  S
O193        C466   1.316       .  A
O193        C473   1.330       .  A
C194        C195   1.391   1_556  A
C194        O472   1.329       .  A
C195        H199   1.082       .  S
H197        C467   1.082       .  S
H198        C471   1.082       .  S
C200        C205   1.381       .  A
C200        C201   1.410       .  A
C200        O206   1.326       .  A
C201        C202   1.410       .  A
C201        H212   1.082       .  S
C202        C211   1.370       .  A
C202        C203   1.381       .  A
C203        C204   1.394       .  A
C203        O209   1.312       .  A
C204        C205   1.394       .  A
C204        H213   1.083       .  S
C205        C208   1.350       .  A
O206        C207   1.334       .  A
C207        C208   1.386       .  A
C208        H214   1.083       .  S
O209        C210   1.326       .  A
C210        C211   1.396       .  A
C211        H215   1.082       .  S
C216        C221   1.381       .  A
C216        C217   1.405       .  A
C216        O222   1.321       .  A
C217        C218   1.404       .  A
C217        H228   1.082       .  S
C218        C227   1.363       .  A
C218        C219   1.381       .  A
C219        C220   1.400       .  A
C219        O225   1.316       .  A
C220        C221   1.399       .  A
C220        H229   1.082       .  S
C221        C224   1.358       .  A
O222        C223   1.331       .  A
C223        C224   1.388       .  A
C224        H230   1.083       .  S
O225        C226   1.328       .  A
C226        C227   1.392       .  A
C227        H231   1.083       .  S
C232        C237   1.380       .  A
C232        C233   1.405       .  A
C232        O238   1.321       .  A
C233        C234   1.404       .  A
C233        H244   1.082       .  S
C234        C235   1.381       .  A
C234        C522   1.363       .  A
C235        C236   1.405       .  A
C235        O520   1.320       .  A
C236        C237   1.405       .  A
C236        H245   1.082       .  S
C237        C240   1.364       .  A
O238        C518   1.332       .  A
C239        C519   1.393       .  A
C239        O517   1.332   1_556  A
C240        C518   1.393       .  A
C240        H246   1.082       .  S
O241        C242   1.330       .  A
O241        C514   1.320       .  A
C242        C243   1.391   1_556  A
C243        C513   1.363       .  A
C243        H247   1.082       .  S
C248        C253   1.380       .  A
C248        C249   1.404       .  A
C248        O254   1.317       .  A
C249        C250   1.402       .  A
C249        H260   1.082       .  S
C250        C259   1.363       .  A
C250        C251   1.380       .  A
C251        C252   1.406       .  A
C251        O257   1.320       .  A
C252        C253   1.404       .  A
C252        H261   1.082       .  S
C253        C256   1.367       .  A
O254        C255   1.331       .  A
C255        C256   1.392       .  A
C256        H262   1.082       .  S
O257        C258   1.332       .  A
C258        C259   1.391       .  A
C259        H263   1.083       .  S
C264        C269   1.381       .  A
C264        C265   1.408       .  A
C264        O270   1.322       .  A
C265        C266   1.406       .  A
C265        H276   1.082       .  S
C266        C275   1.369       .  A
C266        C267   1.381       .  A
C267        C268   1.398       .  A
C267        O273   1.312       .  A
C268        C269   1.396       .  A
C268        H277   1.083       .  S
C269        C272   1.356       .  A
O270        C271   1.332       .  A
C271        C272   1.387       .  A
C272        H278   1.083       .  S
O273        C274   1.328       .  A
C274        C275   1.393       .  A
C275        H279   1.082       .  S
C280        N285   1.365       .  A
C280        C518   1.477       .  S
N281        C282   1.360       .  A
C282        N283   1.354       .  A
C282        C553   1.472       .  S
C284        N285   1.361       .  A
C284        C534   1.471       .  S
C286        N291   1.364       .  A
C286        C473   1.468       .  S
N287        C288   1.354       .  A
C288        N289   1.354       .  A
C288        C502   1.465       .  S
C290        N291   1.361       .  A
C290        C489   1.472       .  S
C292        N297   1.365       .  A
C292        C425   1.469       .  S
N293        C294   1.361       .  A
C294        N295   1.346   1_556  A
C294        C454   1.470       .  S
C296        N297   1.355       .  A
C296        C438   1.461       .  S
N298        C303   1.354       .  A
N298        C302   1.352       .  A
N298        H330   1.033   1_565  S
N299        C306   1.351   1_655  A
N299        C307   1.351       .  A
N300        C305   1.353       .  A
N300        C304   1.355       .  A
N300        H331   1.035       .  S
N301        C308   1.353       .  A
N301        C309   1.351       .  A
C302        C310   1.387       .  A
C302        C318   1.415       .  A
C303        C319   1.417       .  A
C303        C311   1.387       .  A
C304        C312   1.387       .  A
C304        C321   1.416       .  A
C305        C320   1.417       .  A
C305        C313   1.388       .  A
C306        C318   1.414   1_445  A
C306        C314   1.387       .  A
C307        C321   1.412       .  A
C307        C315   1.387   1_655  A
C308        C316   1.385       .  A
C308        C319   1.415   1_545  A
C309        C317   1.387       .  A
C309        C320   1.416       .  A
C310        C311   1.375       .  A
C310        H322   1.082       .  S
C311        H323   1.082       .  S
C312        C313   1.374       .  A
C312        H324   1.082       .  S
C313        H325   1.082       .  S
C314        C315   1.372       .  A
C314        H326   1.082       .  S
C315        H327   1.082       .  S
C316        C317   1.373       .  A
C316        H328   1.082   1_545  S
C317        H329   1.082       .  S
C318        C470   1.475   1_655  S
C319        C521   1.482       .  S
C320        C422   1.481       .  S
C321        C409   1.478   1_655  S
C332        N337   1.358       .  A
C332        C406   1.471       .  S
N333        C334   1.358       .  A
C334        C390   1.472       .  S
N335        C336   1.362       .  A
C336        N337   1.358       .  A
C336        C377   1.470       .  S
O338        C346   1.256       .  A
O338       Co358   1.976       .  S
O339        C347   1.269       .  A
O339       Co359   1.967       .  S
O340        C348   1.297       .  A
O340       Co360   2.126       .  S
O341        C349   1.272       .  A
O341       Co361   2.027       .  S
O342        C348   1.261       .  A
O342       Co359   1.875       .  S
O343        C349   1.259       .  A
O343       Co358   1.960       .  S
O344        C347   1.280       .  A
O344       Co361   2.029       .  S
O345        C346   1.263       .  A
O345       Co360   2.003       .  S
C346        C505   1.460       .  S
C347        C374   1.469       .  S
C348        C486   1.469       .  S
C349        C393   1.472       .  S
O350        C363   1.276       .  A
O350       Co358   2.033       .  S
O351        C364   1.298       .  A
O351       Co359   2.113       .  S
O352        C365   1.268       .  A
O352       Co360   1.973       .  S
O353        C366   1.254       .  A
O353       Co361   1.978       .  S
O354        C366   1.257       .  A
O354       Co359   1.990       .  S
O355        C365   1.276       .  A
O355       Co358   2.015       .  S
O356        C363   1.261       .  A
O356       Co361   1.953       .  S
O357        C364   1.267       .  A
O357       Co360   1.891       .  S
Co358       O362   2.018       .  S
Co359       O362   1.991       .  S
Co360       O362   2.024       .  S
Co361       O362   2.034       .  S
C363        C457   1.468       .  S
C364        C537   1.469       .  S
C365        C550   1.465       .  S
C366        C441   1.455       .  S
C367        C372   1.381       .  A
C367        C368   1.403       .  A
C367        O373   1.318       .  A
C368        C369   1.401       .  A
C368        H379   1.082       .  S
C369        C378   1.362       .  A
C369        C370   1.380       .  A
C370        C371   1.405       .  A
C370        O376   1.320       .  A
C371        C372   1.404       .  A
C371        H380   1.082       .  S
C372        C375   1.364       .  A
O373        C374   1.330       .  A
C374        C375   1.392       .  A
C375        H381   1.083       .  S
O376        C377   1.332       .  A
C377        C378   1.390       .  A
C378        H382   1.082       .  S
C383        C388   1.380       .  A
C383        C384   1.405       .  A
C383        O389   1.322       .  A
C384        C385   1.406       .  A
C384        H395   1.082       .  S
C385        C394   1.362       .  A
C385        C386   1.381       .  A
C386        C387   1.403       .  A
C386        O392   1.320       .  A
C387        C388   1.403       .  A
C387        H396   1.082       .  S
C388        C391   1.360       .  A
O389        C390   1.332       .  A
C390        C391   1.390       .  A
C391        H397   1.083       .  S
O392        C393   1.330       .  A
C393        C394   1.394       .  A
C394        H398   1.083       .  S
C399        C404   1.380       .  A
C399        C400   1.405       .  A
C399        O405   1.320       .  A
C400        C401   1.404       .  A
C400        H411   1.082       .  S
C401        C410   1.363       .  A
C401        C402   1.381       .  A
C402        C403   1.401       .  A
C402        O408   1.317       .  A
C403        C404   1.401       .  A
C403        H412   1.082       .  S
C404        C407   1.360       .  A
O405        C406   1.332       .  A
C406        C407   1.391       .  A
O408        C409   1.329       .  A
C409        C410   1.390       .  A
C410        H414   1.082       .  S
C415        C420   1.381   1_556  A
C415        C416   1.405       .  A
C415        O421   1.320       .  A
C416        C417   1.404       .  A
C416        H427   1.082       .  S
C417        C426   1.364       .  A
C417        C418   1.380   1_556  A
C419        H428   1.082       .  S
C422        C423   1.389       .  A
C423        H429   1.082       .  S
O424        C425   1.330       .  A
C426        H430   1.082       .  S
C431        C436   1.381       .  A
C431        C432   1.405       .  A
C431        O437   1.322       .  A
C432        C433   1.405       .  A
C432        H443   1.082       .  S
C433        C442   1.363       .  A
C433        C434   1.381       .  A
C434        C435   1.393       .  A
C434        O440   1.312       .  A
C435        C436   1.394       .  A
C435        H444   1.083       .  S
C436        C439   1.347       .  A
O437        C438   1.331       .  A
C438        C439   1.388       .  A
C439        H445   1.083       .  S
O440        C441   1.325       .  A
C441        C442   1.391       .  A
C442        H446   1.082       .  S
C447        C452   1.381       .  A
C447        C448   1.403       .  A
C447        O453   1.325       .  A
C448        C449   1.406       .  A
C448        H459   1.082       .  S
C449        C458   1.358       .  A
C449        C450   1.381       .  A
C450        C451   1.398       .  A
C450        O456   1.319       .  A
C451        C452   1.400       .  A
C451        H460   1.083       .  S
C452        C455   1.349       .  A
O453        C454   1.331       .  A
C454        C455   1.392       .  A
C455        H461   1.083       .  S
O456        C457   1.329       .  A
C457        C458   1.393       .  A
C458        H462   1.082       .  S
C463        C468   1.381       .  A
C463        C464   1.404       .  A
C463        O469   1.319       .  A
C464        C465   1.403       .  A
C464        H475   1.082       .  S
C465        C474   1.363       .  A
C465        C466   1.381       .  A
C466        C467   1.401       .  A
C467        C468   1.400       .  A
C468        C471   1.359       .  A
O469        C470   1.330       .  A
C470        C471   1.388       .  A
C473        C474   1.391       .  A
C474        H478   1.082       .  S
C479        C484   1.381       .  A
C479        C480   1.411       .  A
C479        O485   1.327       .  A
C480        C481   1.411       .  A
C480        H491   1.082       .  S
C481        C490   1.372       .  A
C481        C482   1.381       .  A
C482        C483   1.395       .  A
C482        O488   1.312       .  A
C483        C484   1.394       .  A
C483        H492   1.083       .  S
C484        C487   1.350       .  A
O485        C486   1.334       .  A
C486        C487   1.386       .  A
C487        H493   1.083       .  S
O488        C489   1.327       .  A
C489        C490   1.396       .  A
C490        H494   1.082       .  S
C495        C500   1.381       .  A
C495        C496   1.404       .  A
C495        O501   1.320       .  A
C496        C497   1.404       .  A
C496        H507   1.082       .  S
C497        C506   1.362       .  A
C497        C498   1.382       .  A
C498        C499   1.399       .  A
C498        O504   1.315       .  A
C499        C500   1.398       .  A
C499        H508   1.082       .  S
C500        C503   1.357       .  A
O501        C502   1.331       .  A
C502        C503   1.388       .  A
C503        H509   1.083       .  S
O504        C505   1.328       .  A
C505        C506   1.391       .  A
C506        H510   1.083       .  S
C511        C516   1.380   1_554  A
C511        C512   1.405       .  A
C511        O517   1.321       .  A
C512        C513   1.405       .  A
C512        H523   1.082       .  S
C513        C514   1.381   1_554  A
C514        C515   1.404       .  A
C515        C516   1.404       .  A
C515        H524   1.082       .  S
C516        C519   1.363       .  A
C519        H525   1.082       .  S
O520        C521   1.331       .  A
C521        C522   1.390       .  A
C522        H526   1.082       .  S
C527        C532   1.380       .  A
C527        C528   1.402       .  A
C527        O533   1.315       .  A
C528        C529   1.400       .  A
C528        H539   1.082       .  S
C529        C538   1.361       .  A
C529        C530   1.380       .  A
C530        C531   1.407       .  A
C530        O536   1.319       .  A
C531        C532   1.405       .  A
C531        H540   1.082       .  S
C532        C535   1.368       .  A
O533        C534   1.330       .  A
C534        C535   1.392       .  A
C535        H541   1.082       .  S
O536        C537   1.332       .  A
C537        C538   1.390       .  A
C538        H542   1.083       .  S
C543        C548   1.381       .  A
C543        C544   1.408       .  A
C543        O549   1.322       .  A
C544        C545   1.407       .  A
C544        H555   1.082       .  S
C545        C554   1.369       .  A
C545        C546   1.380       .  A
C546        C547   1.400       .  A
C546        O552   1.314       .  A
C547        C548   1.398       .  A
C547        H556   1.083       .  S
C548        C551   1.358       .  A
O549        C550   1.332       .  A
C550        C551   1.388       .  A
C551        H557   1.082       .  S
O552        C553   1.329       .  A
C553        C554   1.394       .  A
C554        H558   1.082       .  S
