geometry optimzed in LAMMPS
_audit_creation_date              2020-11-30 
_audit_creation_method            'lammps2cif' 
_symmetry_space_group_name_H-M    'P1' 
_symmetry_Int_Tables_number       1 
_symmetry_cell_setting            triclinic 
loop_ 
_symmetry_equiv_pos_as_xyz 
  x,y,z 
_cell_length_a                    24.04257812 
_cell_length_b                    24.16821652348673 
_cell_length_c                    23.46352489896247 
_cell_angle_alpha                 87.54075451321373 
_cell_angle_beta                  89.27722950777076 
_cell_angle_gamma                 89.85358314865535 
loop_ 
_atom_site_label 
_atom_site_type_symbol 
_atom_site_fract_x 
_atom_site_fract_y 
_atom_site_fract_z 
_atom_site_charge 
O1          O  0.69192693  0.60117493  0.73522387    -0.80500
O2          O  0.72543579  0.85625640  0.74801834    -0.65200
O3          O  0.75098272  0.70078987  0.71573755    -1.11800
C4          C  0.80344032  0.70266098  0.90013139     1.06400
O5          O  0.80390184  0.86584412  0.79684395    -0.78400
O6          O  0.86710706  0.77270123  0.76914676    -0.66000
Ni7        Ni  0.69709660  0.65953709  0.67610590     1.34900
C8          C  0.88352562  0.72255440  0.76927773     0.85100
O9          O  0.71374579  0.79673747  0.65165563    -0.78900
O10         O  0.69957350  0.71365333  0.61389681    -0.89200
C11         C  0.75985759  0.88639329  0.77465077     0.84700
O12         O  0.62971959  0.69162721  0.70576412    -0.67400
O13         O  0.84128906  0.72745572  0.87231988    -0.86700
C14         C  0.61884313  0.73180851  0.73743562     0.85600
C15         C  0.70353957  0.76630715  0.60977658     1.07100
H16         H  0.72596204  0.76238368  0.83047369     0.38900
O17         O  0.75693609  0.75718590  0.80461865    -1.09300
O18         O  0.84874650  0.68238802  0.77914656    -0.66000
Ni19       Ni  0.76673101  0.67808200  0.79360707     1.26300
O20         O  0.65622914  0.76628182  0.75176763    -0.66200
O21         O  0.77625622  0.66527311  0.87561071    -0.78500
C22         C  0.73294568  0.57204777  0.75298100     0.84900
O23         O  0.77190483  0.59704751  0.77887611    -0.65700
Ni24       Ni  0.82152307  0.79436462  0.83227947     1.27400
Ni25       Ni  0.73490532  0.77819216  0.72931807     1.26100
H26         H  0.78517592  0.69957315  0.69374207     0.39500
O27         O  0.10860169  0.76306743  0.71605373    -0.80500
O28         O  0.38186147  0.77701440  0.74101907    -0.65200
O29         O  0.22366047  0.74103938  0.72464385    -1.11800
C30         C  0.24003071  0.71233357  0.92552311     1.06400
O31         O  0.38092815  0.69281619  0.77785128    -0.78400
O32         O  0.29490536  0.63512354  0.79600533    -0.66000
Ni33       Ni  0.17772818  0.78654433  0.67627703     1.34900
C34         C  0.24497633  0.62023341  0.79512220     0.85100
O35         O  0.31378189  0.76273899  0.64732501    -0.78900
O36         O  0.24057766  0.81231130  0.62925961    -0.89200
C37         C  0.40862963  0.73525001  0.76329338     0.84700
O38         O  0.18730057  0.84755176  0.72354748    -0.67400
O39         O  0.28270767  0.68608017  0.90855926    -0.86700
C40         C  0.23231692  0.87295973  0.73407625     0.85600
C41         C  0.27953607  0.78206328  0.61111524     1.07100
H42         H  0.29522780  0.78527450  0.82842400     0.38900
O43         O  0.28803759  0.75181174  0.80872258    -1.09300
O44         O  0.20766540  0.65583790  0.80614741    -0.66000
Ni45       Ni  0.21007288  0.73767598  0.80670420     1.26300
O46         O  0.28071639  0.84719621  0.73217129    -0.66200
O47         O  0.20562819  0.73529823  0.88988985    -0.78500
C48         C  0.09510673  0.74007447  0.76454527     0.84900
O49         O  0.13078793  0.72898045  0.80313763    -0.65700
Ni50       Ni  0.32981746  0.69095888  0.84007479     1.27400
Ni51       Ni  0.30123693  0.76365836  0.72916160     1.26100
H52         H  0.22283801  0.70417856  0.71032734     0.39500
N53         N  0.71773685  0.77985030  0.50496373    -0.03100
C54         C  0.69040396  0.79225481  0.55383500    -0.00500
C55         C  0.63563613  0.80594395  0.54199764    -0.23400
C56         C  0.62846226  0.80124465  0.48433616    -0.23600
C57         C  0.67922160  0.78481471  0.46333877    -0.00600
H58         H  0.60305126  0.81324565  0.57291510     0.13200
H59         H  0.59011795  0.80648637  0.46105010     0.13200
N60         N  0.98805937  0.74158329  0.75247315    -0.03100
C61         C  0.03578473  0.72255195  0.77760246    -0.00500
C62         C  0.02221725  0.68042839  0.81717370    -0.23400
C63         C  0.96530281  0.67291120  0.81527025    -0.23600
C64         C  0.94479315  0.71095841  0.77505766    -0.00600
H65         H  0.05075939  0.65693417  0.84412645     0.13200
H66         H  0.94122291  0.64417908  0.84219479     0.13200
N67         N  0.98974737  0.77648198  0.24397275    -0.03100
C68         C  0.02949875  0.74256215  0.26934250    -0.00500
C69         C  0.00532500  0.69323874  0.28794566    -0.23400
C70         C  0.94990773  0.69629565  0.27503065    -0.23600
C71         C  0.94070339  0.74716076  0.24740199    -0.00600
H72         H  0.02637386  0.65766856  0.30731580     0.13200
H73         H  0.91951719  0.66432329  0.28499673     0.13200
O74         O  0.97749678  0.82376740  0.42467067    -0.74000
O75         O  0.11925384  0.88986225  0.44070841    -0.74000
O76         O  0.04440644  0.83663669  0.51016393    -0.74100
O77         O  0.05228976  0.87834350  0.35313969    -0.74100
O78         O  0.01984026  0.96181079  0.37354018    -0.74100
O79         O  0.00178833  0.91536619  0.53087775    -0.74100
O80         O  0.08147847  0.96857057  0.46948190    -0.74000
O81         O  0.94008335  0.90636832  0.43950929    -0.74100
Ni82       Ni  0.05020575  0.85459974  0.43102792     1.25400
Ni83       Ni  0.00951200  0.94142993  0.45310798     1.25400
C84         C  0.93505423  0.85391759  0.43444546     0.88200
C85         C  0.12313935  0.93649796  0.46435045     0.88100
C86         C  0.01897511  0.86687869  0.54557870     0.88100
C87         C  0.03636176  0.92699815  0.33720496     0.88300
N88         N  0.26017523  0.79398303  0.50264447    -0.03100
C89         C  0.28401406  0.76714250  0.54871264    -0.00500
C90         C  0.31028739  0.72016329  0.52990679    -0.23400
C91         C  0.30221018  0.71896377  0.47138739    -0.23600
C92         C  0.27046185  0.76477998  0.45499247    -0.00600
H93         H  0.33304281  0.68989455  0.55577100     0.13200
H94         H  0.31973544  0.68887583  0.44335525     0.13200
O95         O  0.11554134  0.71656563  0.22764235    -0.80500
O96         O  0.36977614  0.71704532  0.23785312    -0.65200
O97         O  0.21728943  0.70565799  0.28461563    -1.11800
C98         C  0.22038285  0.89872619  0.28484155     1.06400
O99         O  0.39237347  0.79029868  0.28754180    -0.78400
O100        O  0.31121857  0.79935437  0.36896808    -0.66000
Ni101      Ni  0.16828115  0.65828510  0.24716900     1.34900
C102        C  0.26554478  0.78498713  0.39308313     0.85100
O103        O  0.30412418  0.63072665  0.26699360    -0.78900
O104        O  0.21642991  0.59763166  0.26864397    -0.89200
C105        C  0.40579192  0.74744330  0.26042112     0.84700
O106        O  0.19792149  0.66617236  0.17069356    -0.67400
O107        O  0.26752829  0.89030824  0.30808756    -0.86700
C108        C  0.23793000  0.69289455  0.14652961     0.85600
C109        C  0.26835945  0.59267324  0.27881550     1.07100
H110        H  0.27808801  0.80063614  0.21658920     0.38900
O111        O  0.27816093  0.78816466  0.25614012    -1.09300
O112        O  0.21904238  0.78442304  0.36545872    -0.66000
Ni113      Ni  0.20160728  0.78233811  0.28162148     1.26300
O114        O  0.27800164  0.71137024  0.17556992    -0.66200
O115        O  0.18844227  0.85972448  0.27237046    -0.78500
C116        C  0.09197922  0.74601797  0.26470887     0.84900
O117        O  0.12223168  0.77189166  0.29952678    -0.65700
Ni118      Ni  0.32600294  0.83594925  0.29670689     1.27400
Ni119      Ni  0.29281986  0.71011918  0.25862953     1.26100
H120        H  0.21759604  0.69271777  0.32414732     0.39500
O121        O  0.80094233  0.87167646  0.25868671    -0.80500
O122        O  0.78247873  0.64793541  0.21925543    -0.65200
O123        O  0.74743847  0.79796852  0.20900013    -1.11800
C124        C  0.69119491  0.77015947  0.40442081     1.06400
O125        O  0.70975581  0.62349830  0.27318148    -0.78400
O126        O  0.63677397  0.69925046  0.30570839    -0.66000
Ni127      Ni  0.80503996  0.84619012  0.18461835     1.34900
C128        C  0.61577516  0.74009681  0.27759426     0.85100
O129        O  0.78500928  0.72578910  0.13127510    -0.78900
O130        O  0.80413780  0.81673208  0.11142251    -0.89200
C131        C  0.74907724  0.61216235  0.23903068     0.84700
O132        O  0.87490623  0.80985059  0.20061686    -0.67400
O133        O  0.69959286  0.71904743  0.39751432    -0.86700
C134        C  0.88365158  0.76374906  0.22618923     0.85600
C135        C  0.79332915  0.76785058  0.09617003     1.07100
H136        H  0.78128344  0.73136149  0.31406457     0.38900
O137        O  0.74725363  0.72954882  0.29277674    -1.09300
O138        O  0.64362141  0.78489662  0.26430754    -0.66000
Ni139      Ni  0.72134061  0.80446506  0.28630788     1.26300
O140        O  0.84415183  0.72981375  0.23507340    -0.66200
O141        O  0.69568025  0.80800155  0.36470469    -0.78500
C142        C  0.76083200  0.90514673  0.26090352     0.84900
O143        O  0.71257753  0.88490762  0.27407383    -0.65700
Ni144      Ni  0.70626076  0.67431813  0.33319833     1.27400
Ni145      Ni  0.76709694  0.72389646  0.21319608     1.26100
H146        H  0.71638523  0.80314446  0.18354075     0.39500
N147        N  0.79383187  0.71840322  0.00351930    -0.03100
C148        C  0.78100962  0.73182979  0.94906372    -0.00500
C149        C  0.76547944  0.78711620  0.94490600    -0.23400
C150        C  0.76791006  0.80687726  0.99893801    -0.23600
C151        C  0.78553359  0.76333283  0.03439572    -0.00600
H152        H  0.75761418  0.81199549  0.90648278     0.13200
H153        H  0.75926112  0.84889219  0.01067152     0.13200
N154        N  0.74205954  0.46214643  0.76677659    -0.03100
C155        C  0.73420555  0.51128416  0.73552927    -0.00500
C156        C  0.71500229  0.49798779  0.68233091    -0.23400
C157        C  0.71153126  0.44102213  0.68065482    -0.23600
C158        C  0.72864139  0.41890868  0.73272267    -0.00600
H159        H  0.70232201  0.52708281  0.64858003     0.13200
H160        H  0.69518293  0.41820204  0.64589821     0.13200
N161        N  0.74111104  0.26438978  0.98380124    -0.03100
C162        C  0.71175423  0.28796121  0.93907875    -0.00500
C163        C  0.66903294  0.32108462  0.95881009    -0.23400
C164        C  0.66950095  0.31740292  0.01616094    -0.23600
C165        C  0.71171174  0.28152183  0.03061651    -0.00600
H166        H  0.63741152  0.34250711  0.93391822     0.13200
H167        H  0.63981310  0.33626259  0.04450182     0.13200
O168        O  0.88515265  0.40085190  0.17032381    -0.74000
O169        O  0.82067655  0.39529945  0.02269726    -0.74000
O170        O  0.86473259  0.31820402  0.09728685    -0.74100
O171        O  0.84041972  0.47262783  0.09488248    -0.74100
O172        O  0.92113314  0.48864381  0.04968382    -0.74100
O173        O  0.94948256  0.33265428  0.05992920    -0.74100
O174        O  0.90435483  0.40652854  0.98277091    -0.74000
O175        O  0.96727930  0.42221831  0.13089728    -0.74100
Ni176      Ni  0.85030598  0.39541147  0.09832518     1.25400
Ni177      Ni  0.93938662  0.41195996  0.05519102     1.25400
C178        C  0.93343105  0.42238611  0.17366708     0.88200
C179        C  0.85127880  0.40645275  0.97848736     0.88100
C180        C  0.90808958  0.30039509  0.07192532     0.88100
C181        C  0.87306973  0.50477175  0.06605724     0.88300
N182        N  0.78321158  0.51532790  0.22513836    -0.03100
C183        C  0.74804535  0.55873466  0.21384707    -0.00500
C184        C  0.69869122  0.54202964  0.19111657    -0.23400
C185        C  0.70146423  0.48633194  0.18896830    -0.23600
C186        C  0.75264173  0.47034518  0.21047700    -0.00600
H187        H  0.66241371  0.56738662  0.18192922     0.13200
H188        H  0.66791312  0.45987394  0.17630703     0.13200
O189        O  0.75455927  0.12774458  0.17987337    -0.80500
O190        O  0.72602722  0.37792644  0.20793112    -0.65200
O191        O  0.75315393  0.22712517  0.20432869    -1.11800
C192        C  0.79901349  0.24474704  0.39528435     1.06400
O193        O  0.80644728  0.39322164  0.24770781    -0.78400
O194        O  0.87543699  0.30894771  0.27946140    -0.66000
Ni195      Ni  0.69625776  0.17993015  0.18126345     1.34900
C196        C  0.88896467  0.26052642  0.26612142     0.85100
O197        O  0.71985775  0.30352860  0.12591760    -0.78900
O198        O  0.71138904  0.21253643  0.10593234    -0.89200
C199        C  0.76306941  0.41097173  0.22281048     0.84700
O200        O  0.63057656  0.22484945  0.18626438    -0.67400
O201        O  0.81563811  0.29330425  0.37936717    -0.86700
C202        C  0.62096720  0.26724717  0.21429183     0.85600
C203        C  0.71708976  0.26419676  0.09084426     1.07100
H204        H  0.72390129  0.29772919  0.30704533     0.38900
O205        O  0.75670450  0.29323735  0.28347205    -1.09300
O206        O  0.85274637  0.22141921  0.26548382    -0.66000
Ni207      Ni  0.77109181  0.21579807  0.28101038     1.26300
O208        O  0.66040911  0.29730051  0.22982346    -0.66200
O209        O  0.78286684  0.20850677  0.36115994    -0.78500
C210        C  0.77380960  0.10815414  0.22704877     0.84900
O211        O  0.77857435  0.13664680  0.27201562    -0.65700
Ni212      Ni  0.81054894  0.34084817  0.31206767     1.27400
Ni213      Ni  0.73760625  0.30174862  0.20533351     1.26100
H214        H  0.78632694  0.22299114  0.18114157     0.39500
O215        O  0.87535712  0.19269716  0.71894845    -0.80500
O216        O  0.60920774  0.18214637  0.69079256    -0.65200
O217        O  0.76433223  0.22160328  0.69285470    -1.11800
C218        C  0.70947193  0.27281162  0.87869396     1.06400
O219        O  0.60183905  0.26908748  0.70861626    -0.78400
O220        O  0.66658360  0.34454681  0.75723726    -0.66000
Ni221      Ni  0.81782224  0.16655145  0.67054253     1.34900
C222        C  0.71709217  0.35825199  0.75016867     0.85100
O223        O  0.69116856  0.18508373  0.60926615    -0.78900
O224        O  0.76700266  0.13769320  0.61767896    -0.89200
C225        C  0.57851161  0.22326244  0.70129015     0.84700
O226        O  0.79236988  0.11342599  0.72832349    -0.67400
O227        O  0.66245579  0.28261382  0.85542092    -0.86700
C228        C  0.74349679  0.09317299  0.73401182     0.85600
C229        C  0.73654105  0.16955151  0.58758411     1.07100
H230        H  0.67799360  0.18829407  0.79140608     0.38900
O231        O  0.68527203  0.22029740  0.76632095    -1.09300
O232        O  0.75564081  0.32136936  0.75254132    -0.66000
Ni233      Ni  0.76051396  0.24011424  0.77172516     1.26300
O234        O  0.70050993  0.11937298  0.71420377    -0.66200
O235        O  0.75151429  0.25375088  0.85193624    -0.78500
C236        C  0.87883627  0.23142880  0.75373847     0.84900
O237        O  0.83704835  0.25593730  0.77425869    -0.65700
Ni238      Ni  0.63195346  0.27591565  0.78211973     1.27400
Ni239      Ni  0.68730196  0.19863109  0.68920521     1.26100
H240        H  0.77014179  0.25532554  0.67031994     0.39500
N241        N  0.73064302  0.98693978  0.74556489    -0.03100
C242        C  0.75024213  0.94761531  0.78357898    -0.00500
C243        C  0.76801517  0.97391511  0.83134618    -0.23400
C244        C  0.76016643  0.03031726  0.82128137    -0.23600
C245        C  0.73837602  0.03813298  0.76719452    -0.00600
H246        H  0.78757154  0.95453477  0.86841599     0.13200
H247        H  0.77389036  0.06249609  0.84851321     0.13200
N248        N  0.51319061  0.75217009  0.74238245    -0.03100
C249        C  0.47045428  0.73018749  0.77407079    -0.00500
C250        C  0.49212741  0.69454118  0.81599611    -0.23400
C251        C  0.54918459  0.69497628  0.80974194    -0.23600
C252        C  0.56185699  0.73166383  0.76482145    -0.00600
H253        H  0.46909888  0.67051166  0.84794406     0.13200
H254        H  0.57825603  0.66955237  0.83414593     0.13200
N255        N  0.24799947  0.98296409  0.73502844    -0.03100
C256        C  0.22124700  0.93385053  0.74990569    -0.00500
C257        C  0.16941618  0.94856532  0.77210983    -0.23400
C258        C  0.16479229  0.00582324  0.77082960    -0.23600
C259        C  0.21367487  0.02714630  0.74795453    -0.00600
H260        H  0.13665754  0.92020809  0.78590686     0.13200
H261        H  0.12911171  0.02922806  0.78489994     0.13200
O262        O  0.61985534  0.04537013  0.61564897    -0.74000
O263        O  0.47453464  0.09401305  0.65026986    -0.74000
O264        O  0.52929534  0.00018446  0.66479960    -0.74100
O265        O  0.56289800  0.14258443  0.59845334    -0.74100
O266        O  0.53182064  0.11561525  0.51515691    -0.74100
O267        O  0.49906511  0.97169951  0.58160580    -0.74100
O268        O  0.44344641  0.06451047  0.56835763    -0.74000
O269        O  0.59073835  0.01337748  0.53358450    -0.74100
Ni270      Ni  0.54830305  0.07214456  0.63462178     1.25400
Ni271      Ni  0.51614458  0.04139717  0.54542217     1.25400
C272        C  0.62493536  0.01175160  0.57538631     0.88200
C273        C  0.43505546  0.07596311  0.62066520     0.88100
C274        C  0.50660432  0.96337145  0.63503750     0.88100
C275        C  0.54524228  0.15430531  0.54834375     0.88300
N276        N  0.47470789  0.23946323  0.69667317    -0.03100
C277        C  0.43806253  0.24642331  0.74186514    -0.00500
C278        C  0.46124432  0.22722941  0.79251313    -0.23400
C279        C  0.51301595  0.20808600  0.78001257    -0.23600
C280        C  0.52099512  0.21667478  0.72213433    -0.00600
H281        H  0.44226830  0.22718457  0.83462455     0.13200
H282        H  0.54385795  0.19441070  0.81080758     0.13200
O283        O  0.10450260  0.29101364  0.82158947    -0.80500
O284        O  0.35694639  0.28434228  0.78754995    -0.65200
O285        O  0.20090186  0.28431329  0.77804142    -1.11800
C286        C  0.22624256  0.09002754  0.74154287     1.06400
O287        O  0.34712428  0.24747114  0.70516432    -0.78400
O288        O  0.27301142  0.18911010  0.64744197    -0.66000
Ni289      Ni  0.17749485  0.31049237  0.84619320     1.34900
C290        C  0.23020883  0.21737534  0.63575669     0.85100
O291        O  0.27335659  0.37194949  0.79499752    -0.78900
O292        O  0.18087321  0.38166900  0.80858546    -0.89200
C293        C  0.37908674  0.26409257  0.74278176     0.84700
O294        O  0.18583433  0.24304776  0.88808398    -0.67400
O295        O  0.27618614  0.10494700  0.72923907    -0.86700
C296        C  0.23319955  0.24745647  0.91086248     0.85600
C297        C  0.22854742  0.40363160  0.79568135     1.07100
H298        H  0.27647303  0.18672472  0.80996679     0.38900
O299        O  0.26935017  0.20764049  0.77477876    -1.09300
O300        O  0.19541649  0.22931873  0.67664502    -0.66000
Ni301      Ni  0.19188032  0.20810657  0.76258724     1.26300
O302        O  0.27287856  0.26946997  0.87759053    -0.66200
O303        O  0.18757507  0.12664175  0.75037763    -0.78500
C304        C  0.08301630  0.25392953  0.79052733     0.84900
O305        O  0.11139932  0.21684047  0.76422143    -0.65700
Ni306      Ni  0.31290175  0.17605526  0.71706508     1.27400
Ni307      Ni  0.27643054  0.28709679  0.78877834     1.26100
H308        H  0.19015693  0.30737373  0.74530642     0.39500
N309        N  0.26427146  0.70750671  0.03541024    -0.03100
C310        C  0.22866764  0.71512090  0.98912143    -0.00500
C311        C  0.17515839  0.72404614  0.00812070    -0.23400
C312        C  0.17563101  0.71917577  0.06621432    -0.23600
C313        C  0.22954778  0.70767942  0.08327471    -0.00600
H314        H  0.13867080  0.73099112  0.98218643     0.13200
H315        H  0.13927191  0.72196768  0.09367355     0.13200
N316        N  0.26111006  0.51108835  0.78977945    -0.03100
C317        C  0.22960175  0.55969020  0.78331518    -0.00500
C318        C  0.17629658  0.54599387  0.76882318    -0.23400
C319        C  0.17393658  0.48928042  0.76685488    -0.23600
C320        C  0.22564156  0.46691059  0.78094424    -0.00600
H321        H  0.14179706  0.57429042  0.76208082     0.13200
H322        H  0.13646024  0.46624390  0.75892206     0.13200
N323        N  0.27746271  0.24606028  0.01617726    -0.03100
C324        C  0.23554101  0.23557696  0.97794517    -0.00500
C325        C  0.18739094  0.22735992  0.01051783    -0.23400
C326        C  0.19947680  0.23495962  0.06759096    -0.23600
C327        C  0.25522797  0.24817133  0.07181630    -0.00600
H328        H  0.14631452  0.21977561  0.99427677     0.13200
H329        H  0.17018699  0.23027884  0.10286625     0.13200
O330        O  0.40927704  0.58290127  0.96248734    -0.74000
O331        O  0.39127389  0.43250817  0.00023507    -0.74000
O332        O  0.39219682  0.52308354  0.05548407    -0.74100
O333        O  0.40751594  0.48730824  0.90555759    -0.74100
O334        O  0.49554029  0.51165727  0.90491760    -0.74100
O335        O  0.47272154  0.47950105  0.06876781    -0.74100
O336        O  0.47671838  0.41678732  0.97069796    -0.74000
O337        O  0.49162827  0.57487825  0.00288812    -0.74100
Ni338      Ni  0.39644799  0.50718535  0.98004509     1.25400
Ni339      Ni  0.49071262  0.49512980  0.98772058     1.25400
C340        C  0.44896008  0.60480596  0.98845484     0.88200
C341        C  0.42593045  0.40059614  0.97754923     0.88100
C342        C  0.42502455  0.49616343  0.08764159     0.88100
C343        C  0.45061492  0.50152850  0.87793023     0.88300
N344        N  0.30475379  0.49539235  0.29121107    -0.03100
C345        C  0.28450440  0.54231090  0.31296068    -0.00500
C346        C  0.25674162  0.52866613  0.36356360    -0.23400
C347        C  0.25755465  0.47178878  0.37039694    -0.23600
C348        C  0.28516537  0.45186909  0.32324929    -0.00600
H349        H  0.23194861  0.55632083  0.38867434     0.13200
H350        H  0.23445397  0.44773786  0.40263006     0.13200
N351        N  0.51134981  0.76212325  0.25788722    -0.03100
C352        C  0.55655545  0.72797576  0.26115416    -0.00500
C353        C  0.53769248  0.67340340  0.26278764    -0.23400
C354        C  0.48067760  0.67427146  0.26146542    -0.23600
C355        C  0.46525702  0.72910960  0.25902363    -0.00600
H356        H  0.56284650  0.63628443  0.26726938     0.13200
H357        H  0.45342071  0.63869670  0.26347051     0.13200
N358        N  0.74821844  0.00952952  0.24684172    -0.03100
C359        C  0.78651204  0.04903396  0.23072939    -0.00500
C360        C  0.83101166  0.02687364  0.20244387    -0.23400
C361        C  0.82293238  0.97106926  0.20547240    -0.23600
C362        C  0.77408081  0.96123750  0.23640950    -0.00600
H363        H  0.86441538  0.04878105  0.18011217     0.13200
H364        H  0.85144488  0.94054494  0.18931862     0.13200
N365        N  0.22385847  0.99826950  0.24594426    -0.03100
C366        C  0.20734555  0.04490672  0.27226977    -0.00500
C367        C  0.17121059  0.03193960  0.31687208    -0.23400
C368        C  0.16636923  0.97588221  0.32021424    -0.23600
C369        C  0.19985238  0.95581676  0.27806241    -0.00600
H370        H  0.15477819  0.06011119  0.34727497     0.13200
H371        H  0.14614500  0.95192948  0.35401751     0.13200
O372        O  0.42884731  0.00770757  0.18536384    -0.74000
O373        O  0.43060943  0.15484697  0.12502788    -0.74000
O374        O  0.35447191  0.07394257  0.12948016    -0.74100
O375        O  0.50257218  0.08804248  0.18027197    -0.74100
O376        O  0.53305652  0.06096601  0.09607022    -0.74100
O377        O  0.38444752  0.04153553  0.04678137    -0.74100
O378        O  0.46106647  0.12696905  0.04074847    -0.74000
O379        O  0.46170155  0.97868693  0.10272608    -0.74100
Ni380      Ni  0.42736875  0.08259049  0.15752052     1.25400
Ni381      Ni  0.46049000  0.05143524  0.06795914     1.25400
C382        C  0.45115250  0.97007444  0.15604441     0.88200
C383        C  0.45053878  0.16535951  0.07516499     0.88100
C384        C  0.34522033  0.05071475  0.08256393     0.88100
C385        C  0.54211333  0.07248353  0.14771599     0.88300
N386        N  0.51468406  0.28014178  0.20481107    -0.03100
C387        C  0.56303809  0.27779461  0.23534984    -0.00500
C388        C  0.55052641  0.27244440  0.29293955    -0.23400
C389        C  0.49354976  0.26899299  0.29840401    -0.23600
C390        C  0.47191952  0.27250157  0.24412558    -0.00600
H391        H  0.57997321  0.26660344  0.32721878     0.13200
H392        H  0.47052660  0.26070387  0.33777386     0.13200
N393        N  0.77093632  0.18853351  0.48493189    -0.03100
C394        C  0.79334615  0.23408719  0.45741000    -0.00500
C395        C  0.79609213  0.27722482  0.49414235    -0.23400
C396        C  0.77441601  0.25831504  0.54530590    -0.23600
C397        C  0.76029611  0.20363651  0.53936998    -0.00600
H398        H  0.80852883  0.31951846  0.48375133     0.13200
H399        H  0.76808847  0.28307944  0.58190918     0.13200
N400        N  0.98244260  0.22276320  0.77041788    -0.03100
C401        C  0.93376502  0.25167957  0.76973530    -0.00500
C402        C  0.94201311  0.30614833  0.78228630    -0.23400
C403        C  0.99758730  0.31181382  0.79074893    -0.23600
C404        C  0.02209438  0.26052144  0.78337780    -0.00600
H405        H  0.91107925  0.33873885  0.78349879     0.13200
H406        H  0.01820018  0.34998563  0.80051719     0.13200
N407        N  0.99191839  0.22902524  0.27838708    -0.03100
C408        C  0.94948465  0.25375228  0.24763734    -0.00500
C409        C  0.97286155  0.29000378  0.20737533    -0.23400
C410        C  0.02948942  0.29005527  0.21516572    -0.23600
C411        C  0.04109888  0.25293390  0.25992692    -0.00600
H412        H  0.95051859  0.31676633  0.17810860     0.13200
H413        H  0.05879020  0.31762455  0.19310082     0.13200
O414        O  0.94829011  0.02822518  0.46854008    -0.74000
O415        O  0.93225494  0.00734900  0.63104657    -0.74000
O416        O  0.86407281  0.98974589  0.53116030    -0.74100
O417        O  0.00914206  0.04886891  0.55723234    -0.74100
O418        O  0.96893665  0.13133521  0.56542174    -0.74100
O419        O  0.82763770  0.07225138  0.54614230    -0.74100
O420        O  0.89333154  0.09030145  0.63766399    -0.74000
O421        O  0.91056443  0.11211234  0.47588017    -0.74100
Ni422      Ni  0.93868276  0.01430071  0.54824779     1.25400
Ni423      Ni  0.89785236  0.10385228  0.55690841     1.25400
C424        C  0.93647018  0.07588028  0.44692298     0.88200
C425        C  0.92172805  0.05029056  0.65996416     0.88100
C426        C  0.82491697  0.02573312  0.52322312     0.88100
C427        C  0.01186269  0.10186500  0.55798393     0.88300
N428        N  0.21176579  0.21866840  0.52358246    -0.03100
C429        C  0.23098606  0.24927125  0.47591843    -0.00500
C430        C  0.26305143  0.29148486  0.49646726    -0.23400
C431        C  0.26277027  0.28666410  0.55588820    -0.23600
C432        C  0.22938326  0.24226234  0.57311337    -0.00600
H433        H  0.28315676  0.32414304  0.47087711     0.13200
H434        H  0.28536722  0.31292047  0.58373160     0.13200
O435        O  0.26551906  0.11477941  0.22430377    -0.80500
O436        O  0.29296083  0.37416829  0.25706725    -0.65200
O437        O  0.29248811  0.21570958  0.27316653    -1.11800
C438        C  0.09685335  0.25603338  0.28949657     1.06400
O439        O  0.25367948  0.36175883  0.34217096    -0.78400
O440        O  0.18211357  0.29327282  0.39675414    -0.66000
Ni441      Ni  0.32838146  0.16686577  0.22176708     1.34900
C442        C  0.21079927  0.25135406  0.41247340     0.85100
O443        O  0.37494982  0.29599033  0.24719124    -0.78900
O444        O  0.39738367  0.21078177  0.22024787    -0.89200
C445        C  0.27895888  0.39326899  0.30598620     0.84700
O446        O  0.30267936  0.19920857  0.14915749    -0.67400
O447        O  0.11135096  0.30486183  0.30267694    -0.86700
C448        C  0.28360583  0.24651864  0.13256021     0.85600
C449        C  0.41113182  0.25949064  0.23462310     1.07100
H450        H  0.19748855  0.29467413  0.23407635     0.38900
O451        O  0.21624050  0.28804969  0.26991829    -1.09300
O452        O  0.22756784  0.21777459  0.37412958    -0.66000
Ni453      Ni  0.21317229  0.21261080  0.28881539     1.26300
O454        O  0.28032842  0.28694493  0.16869089    -0.66200
O455        O  0.13043192  0.21393635  0.29439005    -0.78500
C456        C  0.23072856  0.10151158  0.26465733     0.84900
O457        O  0.21416532  0.13559761  0.30099193    -0.65700
Ni458      Ni  0.18240988  0.33384731  0.32358440     1.27400
Ni459      Ni  0.29465929  0.29324946  0.25553395     1.26100
H460        H  0.31125855  0.20973358  0.30908623     0.39500
C461        C  0.11433664  0.10375511  0.56013498    -0.19900
C462        C  0.06416310  0.13082873  0.54706655    -0.06500
C463        C  0.06445302  0.18426221  0.51903336     0.14400
C464        C  0.11494284  0.20956463  0.50742072    -0.19900
C465        C  0.16447913  0.18417796  0.52359872    -0.06500
C466        C  0.16495538  0.13032493  0.54891589     0.14400
C467        C  0.21796181  0.10046779  0.56433360    -0.23300
H468        H  0.11404040  0.06235388  0.57990296     0.15700
H469        H  0.11593225  0.25146502  0.48904600     0.15700
C470        C  0.01265661  0.21620890  0.50140618    -0.23200
H471        H  0.22004802  0.06102912  0.54189600     0.05900
H472        H  0.21868245  0.09106314  0.61105095     0.09200
H473        H  0.25546566  0.12497859  0.55189524     0.09200
H474        H  0.98607759  0.19114423  0.47439821     0.09100
H475        H  0.98875822  0.22852239  0.53958445     0.09100
H476        H  0.02269935  0.25491901  0.47616436     0.05900
C477        C  0.02146192  0.16752261  0.35928377    -0.19900
C478        C  0.98592067  0.17931333  0.31351378    -0.06500
C479        C  0.94683941  0.13839080  0.29994320     0.14400
C480        C  0.92912562  0.10096494  0.34321248    -0.19900
C481        C  0.96113450  0.09354405  0.39197304    -0.06500
C482        C  0.01314038  0.11940748  0.39297252     0.14400
C483        C  0.06200316  0.08985777  0.41882965    -0.23300
H484        H  0.05630492  0.19352562  0.36807877     0.15700
H485        H  0.89255284  0.07671324  0.33756499     0.15700
C486        C  0.92980677  0.12899352  0.23974272    -0.23200
H487        H  0.07262841  0.05490951  0.39178404     0.05900
H488        H  0.05161884  0.07131395  0.46093165     0.09200
H489        H  0.09883976  0.11724286  0.42138209     0.09200
H490        H  0.95008201  0.15802328  0.20834166     0.09100
H491        H  0.88422222  0.13116991  0.23568740     0.09100
H492        H  0.94395540  0.08747119  0.22779599     0.05900
C493        C  0.95064369  0.12643490  0.78817299    -0.19900
C494        C  0.98696213  0.16442640  0.75916987    -0.06500
C495        C  0.01547325  0.14647341  0.71047006     0.14400
C496        C  0.00639339  0.09237753  0.69293522    -0.19900
C497        C  0.95738903  0.06424247  0.70931389    -0.06500
C498        C  0.93390813  0.07748746  0.76211789     0.14400
C499        C  0.89229704  0.03917121  0.79040321    -0.23300
H500        H  0.92990380  0.13855572  0.82696987     0.15700
H501        H  0.03084964  0.07735344  0.65828332     0.15700
C502        C  0.04702621  0.18558529  0.67029419    -0.23200
H503        H  0.87636829  0.05559871  0.83095604     0.05900
H504        H  0.91220433  0.99840026  0.80009975     0.09200
H505        H  0.85735903  0.03286588  0.76117307     0.09200
H506        H  0.08985575  0.16993341  0.66294978     0.09100
H507        H  0.04897177  0.22853692  0.68399609     0.09100
H508        H  0.02453277  0.18942049  0.62981017     0.05900
C509        C  0.73050665  0.04156008  0.48589038    -0.19900
C510        C  0.78477826  0.02228125  0.47515476    -0.06500
C511        C  0.80697859  0.05140773  0.42684041     0.14400
C512        C  0.80583105  0.10969763  0.42963389    -0.19900
C513        C  0.76437992  0.13387869  0.46350273    -0.06500
C514        C  0.72031546  0.09906074  0.48206361     0.14400
C515        C  0.66299839  0.12150425  0.48984043    -0.23300
H516        H  0.69647332  0.01268323  0.48853393     0.15700
H517        H  0.83519021  0.13452611  0.40472653     0.15700
C518        C  0.79539032  0.02988717  0.36954602    -0.23200
H519        H  0.63388993  0.10020208  0.46173578     0.05900
H520        H  0.66123318  0.16646890  0.47847765     0.09200
H521        H  0.65007866  0.11476771  0.53480426     0.09200
H522        H  0.83244901  0.01080474  0.35066722     0.09100
H523        H  0.78280950  0.06399801  0.34047845     0.09100
H524        H  0.76036183  0.00020715  0.37179560     0.05900
C525        C  0.54647265  0.26542581  0.10533569    -0.19900
C526        C  0.50873549  0.28901127  0.14358432    -0.06500
C527        C  0.45594270  0.30047558  0.12173616     0.14400
C528        C  0.43379862  0.26295033  0.08523181    -0.19900
C529        C  0.46830966  0.22220012  0.06269753    -0.06500
C530        C  0.52612308  0.23148924  0.06345644     0.14400
C531        C  0.56642528  0.20029583  0.02733887    -0.23300
H532        H  0.59054757  0.27044185  0.10919010     0.15700
H533        H  0.38916643  0.25962586  0.08338936     0.15700
C534        C  0.42313823  0.34985538  0.13815908    -0.23200
H535        H  0.59272717  0.23007276  0.00195760     0.05900
H536        H  0.54481128  0.17410256  0.99694533     0.09200
H537        H  0.59347938  0.17382224  0.05514725     0.09200
H538        H  0.44344682  0.37172026  0.17296103     0.09100
H539        H  0.38004365  0.33837439  0.15075652     0.09100
H540        H  0.42119515  0.37823091  0.10007985     0.05900
C541        C  0.21742264  0.03722482  0.14685234    -0.19900
C542        C  0.24088429  0.99776017  0.18600121    -0.06500
C543        C  0.28307496  0.96254192  0.16459696     0.14400
C544        C  0.29998562  0.96918350  0.10717964    -0.19900
C545        C  0.29244720  0.02091492  0.07985841    -0.06500
C546        C  0.24418210  0.05005348  0.09420931     0.14400
C547        C  0.22565407  0.09792258  0.05642342    -0.23300
H548        H  0.18226497  0.06202153  0.15983329     0.15700
H549        H  0.33360230  0.94339375  0.09188834     0.15700
C550        C  0.31756299  0.92505270  0.20183998    -0.23200
H551        H  0.18777407  0.11769325  0.07391233     0.05900
H552        H  0.21606341  0.08324213  0.01345000     0.09200
H553        H  0.25938530  0.12913065  0.05222912     0.09200
H554        H  0.32929438  0.94579403  0.24121912     0.09100
H555        H  0.35639405  0.91216043  0.18036495     0.09100
H556        H  0.29446916  0.88675900  0.20977672     0.05900
C557        C  0.68675064  0.01579441  0.16684870    -0.19900
C558        C  0.69311854  0.01845242  0.22594414    -0.06500
C559        C  0.65090518  0.04200195  0.25906924     0.14400
C560        C  0.60278224  0.06178400  0.23197936    -0.19900
C561        C  0.59705865  0.06027775  0.17226671    -0.06500
C562        C  0.64091734  0.03840205  0.13913849     0.14400
C563        C  0.64180455  0.03970381  0.07464984    -0.23300
H564        H  0.72064933  0.99947411  0.14168455     0.15700
H565        H  0.56946106  0.07822421  0.25781606     0.15700
C566        C  0.65654855  0.04656332  0.32239286    -0.23200
H567        H  0.68267791  0.02648028  0.05722727     0.05900
H568        H  0.63424029  0.08253453  0.05757841     0.09200
H569        H  0.61036767  0.01090360  0.05860350     0.09200
H570        H  0.69076562  0.07530015  0.33129883     0.09100
H571        H  0.66474957  0.00505428  0.34265413     0.09100
H572        H  0.61813342  0.06327805  0.34211493     0.05900
C573        C  0.49952618  0.86086020  0.26684515    -0.19900
C574        C  0.50974295  0.81651820  0.23204199    -0.06500
C575        C  0.50250103  0.82323022  0.17248826     0.14400
C576        C  0.48197449  0.87321384  0.14961384    -0.19900
C577        C  0.46920658  0.91733929  0.18439803    -0.06500
C578        C  0.47986723  0.91163252  0.24393276     0.14400
C579        C  0.47138852  0.95822507  0.28394383    -0.23300
H580        H  0.50424713  0.85450314  0.31253701     0.15700
H581        H  0.47536798  0.87729726  0.10399238     0.15700
C582        C  0.51346855  0.77751914  0.13199586    -0.23200
H583        H  0.42679161  0.97005118  0.28566883     0.05900
H584        H  0.49707944  0.99438871  0.26951103     0.09200
H585        H  0.48397858  0.94619469  0.32816155     0.09200
H586        H  0.47422247  0.76668838  0.11066806     0.09100
H587        H  0.53031661  0.73941922  0.15311049     0.09100
H588        H  0.54427427  0.79193515  0.09899591     0.05900
C589        C  0.42715177  0.49541949  0.19254650    -0.19900
C590        C  0.40046146  0.48082299  0.14283642    -0.06500
C591        C  0.34274958  0.46640537  0.14446866     0.14400
C592        C  0.31231157  0.47477486  0.19340015    -0.19900
C593        C  0.33800624  0.49186890  0.24163255    -0.06500
C594        C  0.39592837  0.50086505  0.24275609     0.14400
C595        C  0.42379881  0.51743435  0.29642468    -0.23300
H596        H  0.47078264  0.50665931  0.19096638     0.15700
H597        H  0.26788195  0.46705928  0.19497069     0.15700
C598        C  0.31129614  0.44331138  0.09513012    -0.23200
H599        H  0.46925359  0.52344896  0.28976019     0.05900
H600        H  0.41741250  0.48467777  0.33049094     0.09200
H601        H  0.40566113  0.55685647  0.31070227     0.09200
H602        H  0.33072867  0.40433296  0.08191128     0.09100
H603        H  0.30824301  0.47347219  0.05846866     0.09100
H604        H  0.26769925  0.43257049  0.10726381     0.05900
C605        C  0.30606491  0.33306451  0.97823857    -0.19900
C606        C  0.32156701  0.27996476  0.99538882    -0.06500
C607        C  0.37259467  0.25910784  0.97435759     0.14400
C608        C  0.41493692  0.29833248  0.95986667    -0.19900
C609        C  0.39869201  0.35379033  0.95027829    -0.06500
C610        C  0.34092004  0.36259242  0.94181564     0.14400
C611        C  0.31656008  0.41155565  0.91040236    -0.23300
H612        H  0.26367693  0.34699029  0.98540426     0.15700
H613        H  0.45824797  0.28633737  0.95683435     0.15700
C614        C  0.37974939  0.19856381  0.96503296    -0.23200
H615        H  0.27351727  0.40216328  0.89777989     0.05900
H616        H  0.34138932  0.42060139  0.87134115     0.09200
H617        H  0.31310092  0.44690990  0.93831496     0.09200
H618        H  0.35143812  0.18655230  0.93068340     0.09100
H619        H  0.36802415  0.17389500  0.00419794     0.09100
H620        H  0.42301929  0.18895932  0.95154802     0.05900
C621        C  0.39983704  0.56406816  0.82634834    -0.19900
C622        C  0.43641990  0.51942179  0.81917150    -0.06500
C623        C  0.41588046  0.47732293  0.78440014     0.14400
C624        C  0.35798968  0.47548190  0.77177739    -0.19900
C625        C  0.32043180  0.50996975  0.80070385    -0.06500
C626        C  0.34358628  0.54933031  0.83541671     0.14400
C627        C  0.31402963  0.56546507  0.88976842    -0.23300
H628        H  0.41468128  0.59782698  0.85071687     0.15700
H629        H  0.34223064  0.44505326  0.74361330     0.15700
C630        C  0.45389399  0.43152976  0.76694042    -0.23200
H631        H  0.32214197  0.53537979  0.92510412     0.05900
H632        H  0.26824762  0.56730395  0.88689806     0.09200
H633        H  0.33045294  0.60518222  0.90293105     0.09200
H634        H  0.47091631  0.40952114  0.80544716     0.09100
H635        H  0.48880948  0.44910981  0.74065902     0.09100
H636        H  0.43163143  0.40088923  0.74166895     0.05900
C637        C  0.35230770  0.66642276  0.07503660    -0.19900
C638        C  0.32495387  0.69965680  0.03330046    -0.06500
C639        C  0.35982405  0.72448481  0.98969833     0.14400
C640        C  0.41187360  0.69986773  0.97737881    -0.19900
C641        C  0.43428383  0.65819819  0.01400720    -0.06500
C642        C  0.40884807  0.65228091  0.06837562     0.14400
C643        C  0.44013108  0.62934232  0.11887556    -0.23300
H644        H  0.33038327  0.65012905  0.11234320     0.15700
H645        H  0.43340812  0.71114080  0.93776472     0.15700
C646        C  0.34549944  0.77806844  0.95829822    -0.23200
H647        H  0.44380875  0.66222232  0.15009773     0.05900
H648        H  0.48266189  0.61563417  0.10698357     0.09200
H649        H  0.41683019  0.59465188  0.13969069     0.09200
H650        H  0.37789235  0.80923777  0.96674567     0.09100
H651        H  0.30510362  0.79520614  0.97254913     0.09100
H652        H  0.34512708  0.77229440  0.91176702     0.05900
C653        C  0.46589291  0.20944106  0.54303458    -0.19900
C654        C  0.52355210  0.21119953  0.53767771    -0.06500
C655        C  0.54892630  0.25563035  0.56444972     0.14400
C656        C  0.52068257  0.28027787  0.61022391    -0.19900
C657        C  0.47305467  0.25403278  0.63490743    -0.06500
C658        C  0.44183149  0.22291084  0.59577273     0.14400
C659        C  0.38457777  0.20247021  0.60735193    -0.23300
H660        H  0.44324405  0.18298508  0.51522042     0.15700
H661        H  0.54183870  0.31152588  0.63343857     0.15700
C662        C  0.60680118  0.27378476  0.54835510    -0.23200
H663        H  0.35692124  0.23901355  0.60750884     0.05900
H664        H  0.38363559  0.17688931  0.64746680     0.09200
H665        H  0.36894489  0.17606409  0.57340840     0.09200
H666        H  0.60605555  0.31773329  0.53261583     0.09100
H667        H  0.62453111  0.24849300  0.51419433     0.09100
H668        H  0.63392404  0.27024431  0.58618026     0.05900
C669        C  0.34185813  0.01615138  0.73880509    -0.19900
C670        C  0.30091530  0.99062677  0.70763592    -0.06500
C671        C  0.30441003  0.99276633  0.64787630     0.14400
C672        C  0.34657047  0.02382415  0.62011311    -0.19900
C673        C  0.38449560  0.05468679  0.65100284    -0.06500
C674        C  0.38047459  0.05215672  0.71174159     0.14400
C675        C  0.41295501  0.08965965  0.74921113    -0.23300
H676        H  0.33727836  0.01534649  0.78486024     0.15700
H677        H  0.34972956  0.02383313  0.57400147     0.15700
C678        C  0.26259536  0.96318758  0.61362752    -0.23200
H679        H  0.45785554  0.07935913  0.74947943     0.05900
H680        H  0.39839057  0.08623671  0.79433604     0.09200
H681        H  0.40706551  0.13332389  0.73436983     0.09200
H682        H  0.22005227  0.97864590  0.62287089     0.09100
H683        H  0.26475547  0.91814880  0.62422493     0.09100
H684        H  0.27128400  0.96971963  0.56744541     0.05900
C685        C  0.49655635  0.84957787  0.74668595    -0.19900
C686        C  0.50736888  0.80429265  0.71340958    -0.06500
C687        C  0.50366396  0.80924338  0.65395266     0.14400
C688        C  0.49809539  0.86217486  0.62819257    -0.19900
C689        C  0.49372897  0.90893913  0.66184522    -0.06500
C690        C  0.48692556  0.90149707  0.72163064     0.14400
C691        C  0.46952052  0.94643355  0.76054788    -0.23300
H692        H  0.49452753  0.84371815  0.79276468     0.15700
H693        H  0.50047116  0.86715141  0.58210767     0.15700
C694        C  0.50533944  0.75876860  0.61871996    -0.23200
H695        H  0.50209564  0.95335657  0.79254717     0.05900
H696        H  0.43051071  0.93399797  0.78343856     0.09200
H697        H  0.46115596  0.98554730  0.73695429     0.09200
H698        H  0.47016171  0.73102412  0.63148991     0.09100
H699        H  0.54508506  0.73617319  0.62569653     0.09100
H700        H  0.50170649  0.76986095  0.57248640     0.05900
C701        C  0.63857749  0.93179398  0.63420919    -0.19900
C702        C  0.66046993  0.96227178  0.58705645    -0.06500
C703        C  0.71817267  0.96903970  0.59094898     0.14400
C704        C  0.73837873  0.98756270  0.64230767    -0.19900
C705        C  0.70747714  0.97534990  0.69200096    -0.06500
C706        C  0.65811099  0.94367449  0.68863671     0.14400
C707        C  0.62420316  0.92567338  0.74040604    -0.23300
H708        H  0.60038093  0.90949510  0.63006796     0.15700
H709        H  0.78142497  0.00006920  0.64568498     0.15700
C710        C  0.75195629  0.92390859  0.56568120    -0.23200
H711        H  0.61647392  0.88041114  0.74055038     0.05900
H712        H  0.58440871  0.94813171  0.73923246     0.09200
H713        H  0.64363487  0.93554114  0.78117690     0.09200
H714        H  0.74382344  0.92333437  0.51958549     0.09100
H715        H  0.74002115  0.88362129  0.58625612     0.09100
H716        H  0.79689308  0.92820254  0.57336744     0.05900
C717        C  0.86242610  0.47750924  0.28216727    -0.19900
C718        C  0.84217649  0.51614302  0.24076358    -0.06500
C719        C  0.88367143  0.54190218  0.20458966     0.14400
C720        C  0.93544367  0.51526512  0.19777305    -0.19900
C721        C  0.94203524  0.46125120  0.22012658    -0.06500
C722        C  0.91371519  0.45035874  0.27230471     0.14400
C723        C  0.93809779  0.41029704  0.31566442    -0.23300
H724        H  0.83581341  0.46372743  0.31754915     0.15700
H725        H  0.96437823  0.53078487  0.16508030     0.15700
C726        C  0.87635778  0.59737583  0.17527312    -0.23200
H727        H  0.90817880  0.40031980  0.35105344     0.05900
H728        H  0.97582881  0.42891217  0.33365434     0.09200
H729        H  0.95111813  0.37175902  0.29541069     0.09200
H730        H  0.83800471  0.59877503  0.14982391     0.09100
H731        H  0.91230561  0.60854893  0.14712172     0.09100
H732        H  0.87599704  0.62885538  0.20780231     0.05900
C733        C  0.81179699  0.20444549  0.03185765    -0.19900
C734        C  0.79812600  0.24199734  0.98636202    -0.06500
C735        C  0.84485729  0.26814729  0.95784659     0.14400
C736        C  0.89783973  0.26412290  0.98248159    -0.19900
C737        C  0.90145242  0.24944321  0.04014708    -0.06500
C738        C  0.86283994  0.20949220  0.06037038     0.14400
C739        C  0.87550154  0.17497361  0.11295119    -0.23300
H740        H  0.78116765  0.17520946  0.04829166     0.15700
H741        H  0.93255128  0.28613980  0.96210990     0.15700
C742        C  0.84324804  0.29691338  0.90073482    -0.23200
H743        H  0.84229960  0.14428258  0.12279172     0.05900
H744        H  0.87999986  0.20219426  0.14943155     0.09200
H745        H  0.91495627  0.15199556  0.10643449     0.09200
H746        H  0.80622855  0.32322178  0.89514729     0.09100
H747        H  0.84647631  0.26410549  0.87017475     0.09100
H748        H  0.88000424  0.32370892  0.89229557     0.05900
C749        C  0.82633676  0.45572007  0.82291321    -0.19900
C750        C  0.76832434  0.45511125  0.82113595    -0.06500
C751        C  0.73752086  0.44164083  0.87098924     0.14400
C752        C  0.76565550  0.42547724  0.92113998    -0.19900
C753        C  0.82435420  0.42359130  0.92311738    -0.06500
C754        C  0.85500536  0.44109857  0.87315560     0.14400
C755        C  0.91764942  0.44491967  0.87135450    -0.23300
H756        H  0.84922935  0.46672334  0.78400112     0.15700
H757        H  0.74136687  0.41401705  0.95893881     0.15700
C758        C  0.67506627  0.44537161  0.87106990    -0.23200
H759        H  0.93348973  0.45980527  0.82874618     0.05900
H760        H  0.93655078  0.40365985  0.88063124     0.09200
H761        H  0.93184797  0.47479108  0.90271850     0.09200
H762        H  0.65761961  0.41481688  0.84230580     0.09100
H763        H  0.66213679  0.48764575  0.85619926     0.09100
H764        H  0.65717412  0.43745195  0.91447124     0.05900
C765        C  0.77704025  0.62339673  0.02906284    -0.19900
C766        C  0.81489077  0.66636915  0.02254708    -0.06500
C767        C  0.87241038  0.65671036  0.02596402     0.14400
C768        C  0.89106099  0.60280351  0.03811080    -0.19900
C769        C  0.85272529  0.55973448  0.04853280     0.02700
C770        C  0.79492797  0.56976805  0.04124490     0.14400
C771        C  0.75168580  0.52459717  0.04267628    -0.23300
H772        H  0.73321292  0.63221053  0.02302904     0.15700
H773        H  0.93527539  0.59473043  0.04173367     0.15700
C774        C  0.91342347  0.70319923  0.01633006    -0.23200
H775        H  0.70990212  0.54045984  0.03047642     0.05900
H776        H  0.74742912  0.50531740  0.08596347     0.09200
H777        H  0.76368113  0.49298843  0.01217990     0.09200
H778        H  0.90612155  0.73508189  0.04828063     0.09100
H779        H  0.90846611  0.72236450  0.97284936     0.09100
H780        H  0.95700685  0.68835972  0.02047014     0.05900
C781        C  0.16275891  0.90383499  0.54579015    -0.19900
C782        C  0.17135022  0.94261357  0.50019810    -0.06500
C783        C  0.22316341  0.94150439  0.47182455     0.14400
C784        C  0.25430863  0.89245196  0.47480840    -0.19900
C785        C  0.23225701  0.84570630  0.50445130    -0.06500
C786        C  0.18411392  0.85062976  0.53842370     0.14400
C787        C  0.15009265  0.80000105  0.55659623    -0.23300
H788        H  0.12549999  0.90756119  0.57178419     0.15700
H789        H  0.29347908  0.88968107  0.45177257     0.15700
C790        C  0.24426009  0.99085894  0.43742592    -0.23200
H791        H  0.11690743  0.81038676  0.58757621     0.05900
H792        H  0.17460967  0.76573760  0.57623946     0.09200
H793        H  0.13150439  0.78278854  0.51815766     0.09200
H794        H  0.28320010  0.00576832  0.45647041     0.09100
H795        H  0.21332900  0.02510308  0.43680409     0.09100
H796        H  0.25357332  0.97924692  0.39312198     0.05900
C797        C  0.95428417  0.87105300  0.25883301    -0.19900
C798        C  0.99468770  0.83597970  0.23493347    -0.06500
C799        C  0.04479206  0.86103540  0.21486841     0.14400
C800        C  0.06010191  0.91180697  0.23741058    -0.19900
C801        C  0.02418485  0.93703879  0.27639537    -0.06500
C802        C  0.96784590  0.92575559  0.27006058     0.14400
C803        C  0.92492521  0.96475430  0.29208613    -0.23300
H804        H  0.91537527  0.85515600  0.27571648     0.15700
H805        H  0.10125160  0.92837212  0.22925080     0.15700
C806        C  0.08091731  0.83601779  0.16999307    -0.23200
H807        H  0.88314008  0.94808447  0.28707701     0.05900
H808        H  0.92789583  0.00455216  0.26757749     0.09200
H809        H  0.92951015  0.97214764  0.33787828     0.09200
H810        H  0.08401571  0.86533223  0.13234839     0.09100
H811        H  0.06309451  0.79672357  0.15558386     0.09100
H812        H  0.12342340  0.82827993  0.18635343     0.05900
C813        C  0.00327461  0.83248125  0.70471728    -0.19900
C814        C  0.98616247  0.77711068  0.70233899    -0.06500
C815        C  0.97641041  0.75411185  0.64941559     0.14400
C816        C  0.98492393  0.78655900  0.59989003    -0.19900
C817        C  0.00457867  0.84099862  0.60140488    -0.06500
C818        C  0.01320325  0.86500018  0.65454082     0.14400
C819        C  0.03637655  0.92233451  0.66035210    -0.23300
H820        H  0.01194559  0.84914763  0.74582789     0.15700
H821        H  0.97871901  0.76818740  0.55917630     0.15700
C822        C  0.96126398  0.69398211  0.64473119    -0.23200
H823        H  0.00751905  0.94678304  0.68669757     0.05900
H824        H  0.04290922  0.94523304  0.61901661     0.09200
H825        H  0.07709450  0.91940024  0.68211284     0.09200
H826        H  0.91992509  0.68571368  0.66467161     0.09100
H827        H  0.99310394  0.66729711  0.66612315     0.09100
H828        H  0.95898707  0.68214528  0.59959629     0.05900
C829        C  0.78100516  0.84361404  0.45587524    -0.19900
C830        C  0.77437144  0.79610099  0.49127372    -0.06500
C831        C  0.82150867  0.76248131  0.50287160     0.14400
C832        C  0.87414338  0.77942038  0.48049492    -0.19900
C833        C  0.87975881  0.82851601  0.44620198    -0.06500
C834        C  0.83174755  0.85826726  0.43168653     0.14400
C835        C  0.83316780  0.90314892  0.38688730    -0.23300
H836        H  0.74478773  0.86823312  0.44444085     0.15700
H837        H  0.91081451  0.75525978  0.49104832     0.15700
C838        C  0.81668718  0.70969333  0.53862426    -0.23200
H839        H  0.79080719  0.91486022  0.37309226     0.05900
H840        H  0.85545446  0.88698761  0.34979570     0.09200
H841        H  0.85444336  0.93928036  0.40362746     0.09200
H842        H  0.78482698  0.68246819  0.52063464     0.09100
H843        H  0.80497413  0.71931556  0.58291609     0.09100
H844        H  0.85679776  0.68679701  0.54022240     0.05900
loop_ 
_geom_bond_atom_site_label_1 
_geom_bond_atom_site_label_2 
_geom_bond_distance 
_geom_bond_site_symmetry_2 
_ccdc_geom_bond_type 
O1           Ni7   1.938       .  S
O1           C22   1.274       .  A
O2          Ni25   1.967       .  S
O2           C11   1.289       .  A
O3           Ni7   1.911       .  S
O3          Ni25   1.948       .  S
O3          Ni19   1.927       .  S
O3           H26   0.966       .  S
C4           O21   1.277       .  A
C4           O13   1.252       .  A
C4          C148   1.469       .  S
O5          Ni24   1.933       .  S
O5           C11   1.276       .  A
O6          Ni24   1.922       .  S
O6            C8   1.274       .  A
Ni7          O10   1.918       .  S
Ni7          O12   1.929       .  S
C8           O18   1.294       .  A
C8           C64   1.505       .  S
O9          Ni25   1.932       .  S
O9           C15   1.279       .  A
O10          C15   1.276       .  A
C11         C242   1.520       .  S
O12          C14   1.273       .  A
O13         Ni24   1.897       .  S
C14          O20   1.285       .  A
C14         C252   1.506       .  S
C15          C54   1.468       .  S
H16          O17   0.966       .  S
O17         Ni25   1.899       .  S
O17         Ni19   1.953       .  S
O17         Ni24   1.929       .  S
O18         Ni19   1.999       .  S
Ni19         O23   2.007       .  S
Ni19         O21   1.952       .  S
O20         Ni25   1.976       .  S
C22          O23   1.289       .  A
C22         C155   1.542       .  S
O27         Ni33   1.969       .  S
O27          C48   1.283       .  A
O28         Ni51   1.991       .  S
O28          C37   1.291       .  A
O29         Ni33   1.907       .  S
O29         Ni51   1.950       .  S
O29         Ni45   1.947       .  S
O29          H52   0.966       .  S
C30          O47   1.291       .  A
C30          O39   1.274       .  A
C30         C310   1.518       .  S
O31         Ni50   1.896       .  S
O31          C37   1.257       .  A
O32         Ni50   1.934       .  S
O32          C34   1.255       .  A
Ni33         O36   1.947       .  S
Ni33         O38   1.899       .  S
C34          O44   1.273       .  A
C34         C317   1.547       .  S
O35         Ni51   1.941       .  S
O35          C41   1.265       .  A
O36          C41   1.267       .  A
C37         C249   1.515       .  S
O38          C40   1.278       .  A
O39         Ni50   1.954       .  S
C40          O46   1.320       .  A
C40         C256   1.555       .  S
C41          C89   1.525       .  S
H42          O43   0.966       .  S
O43         Ni51   1.899       .  S
O43         Ni45   1.908       .  S
O43         Ni50   1.906       .  S
O44         Ni45   1.979       .  S
Ni45         O49   1.922       .  S
Ni45         O47   1.952       .  S
O46         Ni51   2.081       .  S
C48          O49   1.275       .  A
C48          C61   1.513       .  S
N53          C57   1.356       .  A
N53          C54   1.359       .  A
N53         C830   1.447       .  S
C54          C55   1.385       .  A
C55          C56   1.376       .  A
C55          H58   1.080       .  S
C56          C57   1.374       .  A
C56          H59   1.082       .  S
C57         C124   1.467       .  S
N60          C64   1.366       .  A
N60          C61   1.366   1_655  A
N60         C814   1.427       .  S
C61          C62   1.385       .  A
C62          C63   1.382   1_455  A
C62          H65   1.082       .  S
C63          C64   1.383       .  A
C63          H66   1.082       .  S
N67          C71   1.377       .  A
N67          C68   1.381   1_655  A
N67         C798   1.449       .  S
C68         C116   1.507       .  S
C68          C69   1.379       .  A
C69          C70   1.371   1_455  A
C69          H72   1.082       .  S
C70          C71   1.384       .  A
C70          H73   1.081       .  S
C71         C134   1.512       .  S
O74         Ni82   1.912   1_655  S
O74          C84   1.277       .  A
O75         Ni82   1.889       .  S
O75          C85   1.282       .  A
O76         Ni82   1.892       .  S
O76          C86   1.279       .  A
O77         Ni82   1.892       .  S
O77          C87   1.278       .  A
O78         Ni83   1.923       .  S
O78          C87   1.282       .  A
O79         Ni83   1.912       .  S
O79          C86   1.276       .  A
O80         Ni83   1.902       .  S
O80          C85   1.273       .  A
O81         Ni83   1.911   1_655  S
O81          C84   1.284       .  A
Ni82        Ni83   2.387       .  S
C84         C833   1.484       .  S
C85         C782   1.452       .  S
C86         C817   1.465       .  S
C87         C801   1.470       .  S
N88          C92   1.367       .  A
N88          C89   1.368       .  A
N88         C785   1.419       .  S
C89          C90   1.384       .  A
C90          C91   1.391       .  A
C90          H93   1.082       .  S
C91          C92   1.387       .  A
C91          H94   1.082       .  S
C92         C102   1.518       .  S
O95        Ni101   1.937       .  S
O95         C116   1.274       .  A
O96        Ni119   1.913       .  S
O96         C105   1.272       .  A
O97        Ni101   1.895       .  S
O97        Ni119   1.910       .  S
O97        Ni113   1.889       .  S
O97         H120   0.966       .  S
C98         O115   1.264       .  A
C98         O107   1.276       .  A
C98         C369   1.467       .  S
O99        Ni118   1.953       .  S
O99         C105   1.277       .  A
O100       Ni118   1.908       .  S
O100        C102   1.271       .  A
Ni101       O104   1.920       .  S
Ni101       O106   1.924       .  S
C102        O112   1.300       .  A
O103       Ni119   1.939       .  S
O103        C109   1.280       .  A
O104        C109   1.278       .  A
C105        C355   1.496       .  S
O106        C108   1.274       .  A
O107       Ni118   1.945       .  S
C108        O114   1.279       .  A
C108        C313   1.527       .  S
C109        C345   1.482       .  S
H110        O111   0.963       .  S
O111       Ni119   1.917       .  S
O111       Ni113   1.932       .  S
O111       Ni118   1.921       .  S
O112       Ni113   2.019       .  S
Ni113       O117   1.964       .  S
Ni113       O115   1.900       .  S
O114       Ni119   1.985       .  S
C116        O117   1.284       .  A
O121       Ni127   1.870       .  S
O121        C142   1.259       .  A
O122       Ni145   1.872       .  S
O122        C131   1.252       .  A
O123       Ni127   1.880       .  S
O123       Ni145   1.849       .  S
O123       Ni139   1.925       .  S
O123        H146   0.967       .  S
C124        O141   1.281       .  A
C124        O133   1.268       .  A
O125       Ni144   1.909       .  S
O125        C131   1.269       .  A
O126       Ni144   1.886       .  S
O126        C128   1.271       .  A
Ni127       O130   1.888       .  S
Ni127       O132   1.927       .  S
C128        O138   1.299       .  A
C128        C352   1.512       .  S
O129       Ni145   1.963       .  S
O129        C135   1.295       .  A
O130        C135   1.277       .  A
C131        C183   1.443       .  S
O132        C134   1.261       .  A
O133       Ni144   1.899       .  S
C134        O140   1.266       .  A
C135        C151   1.473       .  S
H136        O137   0.966       .  S
O137       Ni145   1.932       .  S
O137       Ni139   1.914       .  S
O137       Ni144   1.878       .  S
O138       Ni139   2.008       .  S
Ni139       O143   1.964       .  S
Ni139       O141   1.938       .  S
O140       Ni145   1.936       .  S
C142        O143   1.289       .  A
C142        C362   1.483       .  S
N147        C151   1.344       .  A
N147        C148   1.344   1_554  A
N147        C766   1.411       .  S
C148        C149   1.386       .  A
C149        C150   1.376       .  A
C149        H152   1.080       .  S
C150        C151   1.382   1_556  A
C150        H153   1.082   1_556  S
N154        C158   1.384       .  A
N154        C155   1.382       .  A
N154        C750   1.434       .  S
C155        C156   1.387       .  A
C156        C157   1.382       .  A
C156        H159   1.082       .  S
C157        C158   1.379       .  A
C157        H160   1.082       .  S
C158        C222   1.530       .  S
N161        C165   1.377   1_556  A
N161        C162   1.374       .  A
N161        C734   1.473       .  S
C162        C218   1.480       .  S
C162        C163   1.388       .  A
C163        C164   1.345   1_556  A
C163        H166   1.082       .  S
C164        C165   1.370       .  A
C164        H167   1.082       .  S
C165        C203   1.464       .  S
O168       Ni176   1.905       .  S
O168        C178   1.278       .  A
O169       Ni176   1.921       .  S
O169        C179   1.284   1_554  A
O170       Ni176   1.898       .  S
O170        C180   1.277       .  A
O171       Ni176   1.879       .  S
O171        C181   1.273       .  A
O172       Ni177   1.903       .  S
O172        C181   1.278       .  A
O173       Ni177   1.930       .  S
O173        C180   1.287       .  A
O174       Ni177   1.916   1_556  S
O174        C179   1.281       .  A
O175       Ni177   1.933       .  S
O175        C178   1.284       .  A
Ni176      Ni177   2.385       .  S
C178        C721   1.486       .  S
C179        C753   1.501       .  S
C180        C737   1.477       .  S
C181        C769   1.459       .  S
N182        C186   1.372       .  A
N182        C183   1.365       .  A
N182        C718   1.469       .  S
C183        C184   1.376       .  A
C184        C185   1.351       .  A
C184        H187   1.083       .  S
C185        C186   1.384       .  A
C185        H188   1.083       .  S
C186        C199   1.473       .  S
O189       Ni195   1.884       .  S
O189        C210   1.277       .  A
O190       Ni213   1.865       .  S
O190        C199   1.260       .  A
O191       Ni195   1.883       .  S
O191       Ni213   1.842       .  S
O191       Ni207   1.864       .  S
O191        H214   0.967       .  S
C192        O209   1.276       .  A
C192        O201   1.280       .  A
C192        C394   1.474       .  S
O193       Ni212   1.932       .  S
O193        C199   1.267       .  A
O194       Ni212   1.905       .  S
O194        C196   1.265       .  A
Ni195       O198   1.935       .  S
Ni195       O200   1.919       .  S
C196        O206   1.287       .  A
C196        C408   1.523       .  S
O197       Ni213   1.916       .  S
O197        C203   1.286       .  A
O198        C203   1.290       .  A
O200        C202   1.260       .  A
O201       Ni212   1.918       .  S
C202        O208   1.263       .  A
C202        C387   1.497       .  S
H204        O205   0.966       .  S
O205       Ni213   1.898       .  S
O205       Ni207   1.906       .  S
O205       Ni212   1.883       .  S
O206       Ni207   1.996       .  S
Ni207       O211   1.941       .  S
Ni207       O209   1.906       .  S
O208       Ni213   1.938       .  S
C210        O211   1.291       .  A
C210        C359   1.459       .  S
O215       Ni221   1.926       .  S
O215        C236   1.272       .  A
O216       Ni239   1.920       .  S
O216        C225   1.267       .  A
O217       Ni221   1.932       .  S
O217       Ni239   1.939       .  S
O217       Ni233   1.923       .  S
O217        H240   0.962       .  S
C218        O235   1.278       .  A
C218        O227   1.279       .  A
O219       Ni238   1.893       .  S
O219        C225   1.262       .  A
O220       Ni238   1.923       .  S
O220        C222   1.267       .  A
Ni221       O224   1.906       .  S
Ni221       O226   1.922       .  S
C222        O232   1.284       .  A
O223       Ni239   1.919       .  S
O223        C229   1.261       .  A
O224        C229   1.261       .  A
C225        C280   1.468       .  S
O226        C228   1.277       .  A
O227       Ni238   1.892       .  S
C228        O234   1.292       .  A
C228        C245   1.517       .  S
C229        C397   1.480       .  S
H230        O231   0.967       .  S
O231       Ni239   1.905       .  S
O231       Ni233   1.880       .  S
O231       Ni238   1.900       .  S
O232       Ni233   1.999       .  S
Ni233       O237   1.883       .  S
Ni233       O235   1.934       .  S
O234       Ni239   2.005       .  S
C236        O237   1.265       .  A
C236        C401   1.468       .  S
N241        C245   1.371   1_565  A
N241        C242   1.363       .  A
N241        C705   1.420       .  S
C242        C243   1.385       .  A
C243        C244   1.386   1_565  A
C243        H246   1.082       .  S
C244        C245   1.384       .  A
C244        H247   1.082       .  S
N248        C252   1.372       .  A
N248        C249   1.357       .  A
N248        C686   1.413       .  S
C249        C250   1.385       .  A
C250        C251   1.378       .  A
C250        H253   1.077       .  S
C251        C252   1.379       .  A
C251        H254   1.082       .  S
N255        C259   1.389   1_565  A
N255        C256   1.381       .  A
N255        C670   1.427       .  S
C256        C257   1.396       .  A
C257        C258   1.387   1_565  A
C257        H260   1.083       .  S
C258        C259   1.378       .  A
C258        H261   1.082       .  S
C259        C286   1.551       .  S
O262       Ni270   1.891       .  S
O262        C272   1.277       .  A
O263       Ni270   1.886       .  S
O263        C273   1.272       .  A
O264       Ni270   1.904       .  S
O264        C274   1.282   1_545  A
O265       Ni270   1.901       .  S
O265        C275   1.275       .  A
O266       Ni271   1.937       .  S
O266        C275   1.287       .  A
O267       Ni271   1.897   1_565  S
O267        C274   1.276       .  A
O268       Ni271   1.911       .  S
O268        C273   1.283       .  A
O269       Ni271   1.936       .  S
O269        C272   1.287       .  A
Ni270      Ni271   2.389       .  S
C272        C702   1.486   1_545  S
C273        C673   1.483       .  S
C274        C689   1.466       .  S
C275        C654   1.482       .  S
N276        C280   1.373       .  A
N276        C277   1.386       .  A
N276        C657   1.478       .  S
C277        C293   1.480       .  S
C277        C278   1.381       .  A
C278        C279   1.360       .  A
C278        H281   1.083       .  S
C279        C280   1.376       .  A
C279        H282   1.083       .  S
O283       Ni289   1.920       .  S
O283        C304   1.292       .  A
O284       Ni307   1.937       .  S
O284        C293   1.286       .  A
O285       Ni289   1.827       .  S
O285       Ni307   1.838       .  S
O285       Ni301   1.906       .  S
O285        H308   0.967       .  S
C286        O303   1.303       .  A
C286        O295   1.281       .  A
O287       Ni306   1.922       .  S
O287        C293   1.257       .  A
O288       Ni306   1.919       .  S
O288        C290   1.260       .  A
Ni289       O292   1.901       .  S
Ni289       O294   1.879       .  S
C290        O300   1.306       .  A
C290        C432   1.564       .  S
O291       Ni307   2.063       .  S
O291        C297   1.320       .  A
O292        C297   1.291       .  A
O294        C296   1.271       .  A
O295       Ni306   1.943       .  S
C296        O302   1.323       .  A
C296        C324   1.589       .  S
C297        C320   1.555       .  S
H298        O299   0.966       .  S
O299       Ni307   1.970       .  S
O299       Ni301   1.888       .  S
O299       Ni306   1.887       .  S
O300       Ni301   2.060       .  S
Ni301       O305   1.946       .  S
Ni301       O303   2.005       .  S
O302       Ni307   2.110       .  S
C304        O305   1.298       .  A
C304        C404   1.484       .  S
N309        C313   1.391       .  A
N309        C310   1.397   1_554  A
N309        C638   1.471       .  S
C310        C311   1.376   1_556  A
C311        C312   1.363       .  A
C311        H314   1.083   1_554  S
C312        C313   1.385       .  A
C312        H315   1.083       .  S
N316        C320   1.392       .  A
N316        C317   1.400       .  A
N316        C625   1.452       .  S
C317        C318   1.375       .  A
C318        C319   1.375       .  A
C318        H321   1.083       .  S
C319        C320   1.392       .  A
C319        H322   1.083       .  S
N323        C327   1.407       .  A
N323        C324   1.389   1_554  A
N323        C606   1.411   1_554  S
C324        C325   1.389   1_556  A
C325        C326   1.394       .  A
C325        H328   1.082   1_554  S
C326        C327   1.384       .  A
C326        H329   1.082       .  S
C327        C448   1.587       .  S
O330       Ni338   1.884       .  S
O330        C340   1.268       .  A
O331       Ni338   1.850   1_554  S
O331        C341   1.262   1_554  A
O332       Ni338   1.829   1_554  S
O332        C342   1.259       .  A
O333       Ni338   1.848       .  S
O333        C343   1.256       .  A
O334       Ni339   1.969       .  S
O334        C343   1.288       .  A
O335       Ni339   1.966   1_554  S
O335        C342   1.294       .  A
O336       Ni339   1.982       .  S
O336        C341   1.289       .  A
O337       Ni339   1.975   1_554  S
O337        C340   1.294   1_554  A
Ni338      Ni339   2.293       .  S
C340        C641   1.486   1_556  S
C341        C609   1.481       .  S
C342        C590   1.451       .  S
C343        C622   1.471       .  S
N344        C348   1.349       .  A
N344        C345   1.350       .  A
N344        C593   1.409       .  S
C345        C346   1.383       .  A
C346        C347   1.377       .  A
C346        H349   1.083       .  S
C347        C348   1.386       .  A
C347        H350   1.082       .  S
C348        C445   1.498       .  S
N351        C355   1.367       .  A
N351        C352   1.364       .  A
N351        C574   1.425       .  S
C352        C353   1.395       .  A
C353        C354   1.372       .  A
C353        H356   1.083       .  S
C354        C355   1.374       .  A
C354        H357   1.081       .  S
N358        C362   1.351   1_545  A
N358        C359   1.366       .  A
N358        C558   1.431       .  S
C359        C360   1.372       .  A
C360        C361   1.362   1_545  A
C360        H363   1.081       .  S
C361        C362   1.389       .  A
C361        H364   1.083       .  S
N365        C369   1.371       .  A
N365        C366   1.364   1_565  A
N365        C542   1.460       .  S
C366        C456   1.483       .  S
C366        C367   1.378       .  A
C367        C368   1.359   1_545  A
C367        H370   1.078       .  S
C368        C369   1.371       .  A
C368        H371   1.074       .  S
O372       Ni380   1.898       .  S
O372        C382   1.277   1_545  A
O373       Ni380   1.877       .  S
O373        C383   1.274       .  A
O374       Ni380   1.895       .  S
O374        C384   1.279       .  A
O375       Ni380   1.898       .  S
O375        C385   1.278       .  A
O376       Ni381   1.891       .  S
O376        C385   1.276       .  A
O377       Ni381   1.919       .  S
O377        C384   1.280       .  A
O378       Ni381   1.908       .  S
O378        C383   1.279       .  A
O379       Ni381   1.907   1_565  S
O379        C382   1.282       .  A
Ni380      Ni381   2.389       .  S
C382        C577   1.479       .  S
C383        C529   1.456       .  S
C384        C545   1.464       .  S
C385        C561   1.472       .  S
N386        C390   1.380       .  A
N386        C387   1.373       .  A
N386        C526   1.452       .  S
C387        C388   1.381       .  A
C388        C389   1.377       .  A
C388        H391   1.083       .  S
C389        C390   1.381       .  A
C389        H392   1.082       .  S
C390        C449   1.517       .  S
N393        C397   1.364       .  A
N393        C394   1.361       .  A
N393        C513   1.443       .  S
C394        C395   1.383       .  A
C395        C396   1.364       .  A
C395        H398   1.083       .  S
C396        C397   1.378       .  A
C396        H399   1.077       .  S
N400        C404   1.367   1_655  A
N400        C401   1.361       .  A
N400        C494   1.449       .  S
C401        C402   1.377       .  A
C402        C403   1.361       .  A
C402        H405   1.083       .  S
C403        C404   1.388   1_655  A
C403        H406   1.083   1_655  S
N407        C411   1.374   1_655  A
N407        C408   1.377       .  A
N407        C478   1.434       .  S
C408        C409   1.376       .  A
C409        C410   1.376   1_655  A
C409        H412   1.071       .  S
C410        C411   1.382       .  A
C410        H413   1.083       .  S
C411        C438   1.521       .  S
O414       Ni422   1.897       .  S
O414        C424   1.271       .  A
O415       Ni422   1.947       .  S
O415        C425   1.287       .  A
O416       Ni422   1.943   1_565  S
O416        C426   1.290   1_565  A
O417       Ni422   1.909   1_455  S
O417        C427   1.284       .  A
O418       Ni423   1.851       .  S
O418        C427   1.267   1_655  A
O419       Ni423   1.879       .  S
O419        C426   1.269       .  A
O420       Ni423   1.911       .  S
O420        C425   1.280       .  A
O421       Ni423   1.924       .  S
O421        C424   1.286       .  A
Ni422      Ni423   2.390       .  S
C424        C481   1.460       .  S
C425        C497   1.500       .  S
C426        C510   1.499       .  S
C427        C462   1.455       .  S
N428        C432   1.388       .  A
N428        C429   1.389       .  A
N428        C465   1.411       .  S
C429        C442   1.570       .  S
C429        C430   1.387       .  A
C430        C431   1.394       .  A
C430        H433   1.082       .  S
C431        C432   1.385       .  A
C431        H434   1.082       .  S
O435       Ni441   1.968       .  S
O435        C456   1.286       .  A
O436       Ni459   1.958       .  S
O436        C445   1.296       .  A
O437       Ni441   1.919       .  S
O437       Ni459   1.902       .  S
O437       Ni453   1.938       .  S
O437        H460   0.966       .  S
C438        O455   1.299       .  A
C438        O447   1.283       .  A
O439       Ni458   1.906       .  S
O439        C445   1.267       .  A
O440       Ni458   1.940       .  S
O440        C442   1.268       .  A
Ni441       O444   1.971       .  S
Ni441       O446   1.951       .  S
C442        O452   1.297       .  A
O443       Ni459   1.939       .  S
O443        C449   1.278       .  A
O444        C449   1.284       .  A
O446        C448   1.278       .  A
O447       Ni458   1.925       .  S
C448        O454   1.322       .  A
H450        O451   0.966       .  S
O451       Ni459   1.915       .  S
O451       Ni453   1.859       .  S
O451       Ni458   1.887       .  S
O452       Ni453   2.045       .  S
Ni453       O457   1.871       .  S
Ni453       O455   1.992       .  S
O454       Ni459   2.083       .  S
C456        O457   1.270       .  A
C461        C462   1.402       .  A
C461        C466   1.394       .  A
C461        H468   1.085       .  S
C462        C463   1.424       .  A
C463        C464   1.379       .  A
C463        C470   1.516       .  S
C464        C465   1.388       .  A
C464        H469   1.084       .  S
C465        C466   1.407       .  A
C466        C467   1.503       .  S
C467        H471   1.109       .  S
C467        H472   1.110       .  S
C467        H473   1.109       .  S
C470        H474   1.105   1_455  S
C470        H475   1.109   1_455  S
C470        H476   1.111       .  S
C477        C478   1.400   1_455  A
C477        C482   1.391       .  A
C477        H484   1.076       .  S
C478        C479   1.415       .  A
C479        C480   1.394       .  A
C479        C486   1.502       .  S
C480        C481   1.392       .  A
C480        H485   1.071       .  S
C481        C482   1.400   1_655  A
C482        C483   1.495       .  S
C483        H487   1.106       .  S
C483        H488   1.093       .  S
C483        H489   1.111       .  S
C486        H490   1.105       .  S
C486        H491   1.102       .  S
C486        H492   1.105       .  S
C493        C494   1.416       .  A
C493        C498   1.416       .  A
C493        H500   1.083       .  S
C494        C495   1.409   1_655  A
C495        C496   1.406       .  A
C495        C502   1.506       .  S
C496        C497   1.403   1_455  A
C496        H501   1.073       .  S
C497        C498   1.404       .  A
C498        C499   1.495       .  S
C499        H503   1.110       .  S
C499        H504   1.110   1_545  S
C499        H505   1.106       .  S
C502        H506   1.110       .  S
C502        H507   1.101       .  S
C502        H508   1.099       .  S
C509        C510   1.408       .  A
C509        C514   1.410       .  A
C509        H516   1.076       .  S
C510        C511   1.408       .  A
C511        C512   1.413       .  A
C511        C518   1.492       .  S
C512        C513   1.408       .  A
C512        H517   1.078       .  S
C513        C514   1.408       .  A
C514        C515   1.492       .  S
C515        H519   1.110       .  S
C515        H520   1.109       .  S
C515        H521   1.101       .  S
C518        H522   1.099       .  S
C518        H523   1.092       .  S
C518        H524   1.107       .  S
C525        C526   1.405       .  A
C525        C530   1.400       .  A
C525        H532   1.072       .  S
C526        C527   1.398       .  A
C527        C528   1.386       .  A
C527        C534   1.491       .  S
C528        C529   1.403       .  A
C528        H533   1.078       .  S
C529        C530   1.409       .  A
C530        C531   1.502       .  S
C531        H535   1.108       .  S
C531        H536   1.109   1_554  S
C531        H537   1.109       .  S
C534        H538   1.110       .  S
C534        H539   1.107       .  S
C534        H540   1.104       .  S
C541        C542   1.417   1_545  A
C541        C546   1.408       .  A
C541        H548   1.083       .  S
C542        C543   1.423       .  A
C543        C544   1.405       .  A
C543        C550   1.489       .  S
C544        C545   1.393   1_565  A
C544        H549   1.086       .  S
C545        C546   1.401       .  A
C546        C547   1.497       .  S
C547        H551   1.110       .  S
C547        H552   1.110       .  S
C547        H553   1.110       .  S
C550        H554   1.110       .  S
C550        H555   1.106       .  S
C550        H556   1.088       .  S
C557        C558   1.401       .  A
C557        C562   1.386       .  A
C557        H564   1.084   1_545  S
C558        C559   1.405       .  A
C559        C560   1.400       .  A
C559        C566   1.502       .  S
C560        C561   1.412       .  A
C560        H565   1.083       .  S
C561        C562   1.417       .  A
C562        C563   1.512       .  S
C563        H567   1.111       .  S
C563        H568   1.109       .  S
C563        H569   1.109       .  S
C566        H570   1.106       .  S
C566        H571   1.110       .  S
C566        H572   1.111       .  S
C573        C574   1.394       .  A
C573        C578   1.402       .  A
C573        H580   1.084       .  S
C574        C575   1.413       .  A
C575        C576   1.392       .  A
C575        C582   1.508       .  S
C576        C577   1.402       .  A
C576        H581   1.084       .  S
C577        C578   1.424       .  A
C578        C579   1.509       .  S
C579        H583   1.110       .  S
C579        H584   1.110       .  S
C579        H585   1.111       .  S
C582        H586   1.111       .  S
C582        H587   1.105       .  S
C582        H588   1.110       .  S
C589        C590   1.397       .  A
C589        C594   1.400       .  A
C589        H596   1.084       .  S
C590        C591   1.431       .  A
C591        C592   1.376       .  A
C591        C598   1.518       .  S
C592        C593   1.376       .  A
C592        H597   1.085       .  S
C593        C594   1.411       .  A
C594        C595   1.504       .  S
C595        H599   1.111       .  S
C595        H600   1.110       .  S
C595        H601   1.110       .  S
C598        H602   1.105       .  S
C598        H603   1.106       .  S
C598        H604   1.111       .  S
C605        C606   1.380       .  A
C605        C610   1.369       .  A
C605        H612   1.086       .  S
C606        C607   1.416       .  A
C607        C608   1.421       .  A
C607        C614   1.498       .  S
C608        C609   1.405       .  A
C608        H613   1.082       .  S
C609        C610   1.420       .  A
C610        C611   1.490       .  S
C611        H615   1.107       .  S
C611        H616   1.102       .  S
C611        H617   1.101       .  S
C614        H618   1.110       .  S
C614        H619   1.108   1_556  S
C614        H620   1.110       .  S
C621        C622   1.405       .  A
C621        C626   1.411       .  A
C621        H628   1.080       .  S
C622        C623   1.424       .  A
C623        C624   1.428       .  A
C623        C630   1.501       .  S
C624        C625   1.414       .  A
C624        H629   1.082       .  S
C625        C626   1.400       .  A
C626        C627   1.517       .  S
C627        H631   1.098       .  S
C627        H632   1.104       .  S
C627        H633   1.097       .  S
C630        H634   1.111       .  S
C630        H635   1.110       .  S
C630        H636   1.111       .  S
C637        C638   1.408       .  A
C637        C642   1.409       .  A
C637        H644   1.077       .  S
C638        C639   1.428   1_554  A
C639        C640   1.416       .  A
C639        C646   1.504       .  S
C640        C641   1.406   1_556  A
C640        H645   1.083       .  S
C641        C642   1.410       .  A
C642        C643   1.497       .  S
C643        H647   1.108       .  S
C643        H648   1.110       .  S
C643        H649   1.103       .  S
C646        H650   1.110       .  S
C646        H651   1.108       .  S
C646        H652   1.107       .  S
C653        C654   1.391       .  A
C653        C658   1.410       .  A
C653        H660   1.085       .  S
C654        C655   1.411       .  A
C655        C656   1.416       .  A
C655        C662   1.499       .  S
C656        C657   1.416       .  A
C656        H661   1.082       .  S
C657        C658   1.432       .  A
C658        C659   1.482       .  S
C659        H663   1.104       .  S
C659        H664   1.104       .  S
C659        H665   1.111       .  S
C662        H666   1.110       .  S
C662        H667   1.109       .  S
C662        H668   1.108       .  S
C669        C670   1.394   1_545  A
C669        C674   1.402       .  A
C669        H676   1.084       .  S
C670        C671   1.402       .  A
C671        C672   1.400   1_565  A
C671        C678   1.497       .  S
C672        C673   1.407       .  A
C672        H677   1.084       .  S
C673        C674   1.426       .  A
C674        C675   1.514       .  S
C675        H679   1.107       .  S
C675        H680   1.111       .  S
C675        H681   1.106       .  S
C678        H682   1.110       .  S
C678        H683   1.107       .  S
C678        H684   1.106       .  S
C685        C686   1.393       .  A
C685        C690   1.383       .  A
C685        H692   1.085       .  S
C686        C687   1.399       .  A
C687        C688   1.398       .  A
C687        C694   1.503       .  S
C688        C689   1.409       .  A
C688        H693   1.084       .  S
C689        C690   1.414       .  A
C690        C691   1.504       .  S
C691        H695   1.110       .  S
C691        H696   1.111       .  S
C691        H697   1.094       .  S
C694        H698   1.111       .  S
C694        H699   1.110       .  S
C694        H700   1.111       .  S
C701        C702   1.400       .  A
C701        C706   1.408       .  A
C701        H708   1.074       .  S
C702        C703   1.402       .  A
C703        C704   1.397       .  A
C703        C710   1.497       .  S
C704        C705   1.396       .  A
C704        H709   1.084   1_565  S
C705        C706   1.419       .  A
C706        C707   1.504       .  S
C707        H711   1.110       .  S
C707        H712   1.099       .  S
C707        H713   1.105       .  S
C710        H714   1.102       .  S
C710        H715   1.105       .  S
C710        H716   1.103       .  S
C717        C718   1.409       .  A
C717        C722   1.416       .  A
C717        H724   1.083       .  S
C718        C719   1.428       .  A
C719        C720   1.410       .  A
C719        C726   1.491       .  S
C720        C721   1.395       .  A
C720        H725   1.085       .  S
C721        C722   1.409       .  A
C722        C723   1.498       .  S
C723        H727   1.111       .  S
C723        H728   1.110       .  S
C723        H729   1.106       .  S
C726        H730   1.105       .  S
C726        H731   1.108       .  S
C726        H732   1.100       .  S
C733        C734   1.413   1_554  A
C733        C738   1.413       .  A
C733        H740   1.078       .  S
C734        C735   1.435       .  A
C735        C736   1.407       .  A
C735        C742   1.484       .  S
C736        C737   1.388   1_556  A
C736        H741   1.086       .  S
C737        C738   1.405       .  A
C738        C739   1.494       .  S
C739        H743   1.107       .  S
C739        H744   1.108       .  S
C739        H745   1.110       .  S
C742        H746   1.098       .  S
C742        H747   1.094       .  S
C742        H748   1.108       .  S
C749        C750   1.396       .  A
C749        C754   1.405       .  A
C749        H756   1.084       .  S
C750        C751   1.403       .  A
C751        C752   1.405       .  A
C751        C758   1.504       .  S
C752        C753   1.413       .  A
C752        H757   1.082       .  S
C753        C754   1.426       .  A
C754        C755   1.509       .  S
C755        H759   1.111       .  S
C755        H760   1.109       .  S
C755        H761   1.110       .  S
C758        H762   1.108       .  S
C758        H763   1.110       .  S
C758        H764   1.110       .  S
C765        C766   1.385       .  A
C765        C770   1.384       .  A
C765        H772   1.084       .  S
C766        C767   1.405       .  A
C767        C768   1.396       .  A
C767        C774   1.505       .  S
C768        C769   1.404       .  A
C768        H773   1.084       .  S
C769        C770   1.421       .  A
C770        C771   1.509       .  S
C771        H775   1.111       .  S
C771        H776   1.103       .  S
C771        H777   1.104       .  S
C774        H778   1.110       .  S
C774        H779   1.110   1_554  S
C774        H780   1.111       .  S
C781        C782   1.405       .  A
C781        C786   1.400       .  A
C781        H788   1.083       .  S
C782        C783   1.406       .  A
C783        C784   1.400       .  A
C783        C790   1.497       .  S
C784        C785   1.403       .  A
C784        H789   1.083       .  S
C785        C786   1.405       .  A
C786        C787   1.516       .  S
C787        H791   1.108       .  S
C787        H792   1.103       .  S
C787        H793   1.109       .  S
C790        H794   1.110   1_565  S
C790        H795   1.111   1_565  S
C790        H796   1.108       .  S
C797        C798   1.414       .  A
C797        C802   1.399       .  A
C797        H804   1.077       .  S
C798        C799   1.416   1_655  A
C799        C800   1.408       .  A
C799        C806   1.502       .  S
C800        C801   1.407       .  A
C800        H805   1.080       .  S
C801        C802   1.393   1_455  A
C802        C803   1.498       .  S
C803        H807   1.093       .  S
C803        H808   1.101   1_565  S
C803        H809   1.104       .  S
C806        H810   1.110       .  S
C806        H811   1.110       .  S
C806        H812   1.109       .  S
C813        C814   1.405   1_455  A
C813        C818   1.405       .  A
C813        H820   1.084       .  S
C814        C815   1.405       .  A
C815        C816   1.387       .  A
C815        C822   1.508       .  S
C816        C817   1.401   1_655  A
C816        H821   1.083       .  S
C817        C818   1.415       .  A
C818        C819   1.507       .  S
C819        H823   1.110       .  S
C819        H824   1.106       .  S
C819        H825   1.111       .  S
C822        H826   1.108       .  S
C822        H827   1.111       .  S
C822        H828   1.111       .  S
C829        C830   1.396       .  A
C829        C834   1.380       .  A
C829        H836   1.083       .  S
C830        C831   1.415       .  A
C831        C832   1.418       .  A
C831        C838   1.500       .  S
C832        C833   1.411       .  A
C832        H837   1.082       .  S
C833        C834   1.396       .  A
C834        C835   1.478       .  S
C835        H839   1.105       .  S
C835        H840   1.102       .  S
C835        H841   1.102       .  S
C838        H842   1.110       .  S
C838        H843   1.107       .  S
C838        H844   1.111       .  S
