geometry optimzed in LAMMPS
_audit_creation_date              2020-11-30 
_audit_creation_method            'lammps2cif' 
_symmetry_space_group_name_H-M    'P1' 
_symmetry_Int_Tables_number       1 
_symmetry_cell_setting            triclinic 
loop_ 
_symmetry_equiv_pos_as_xyz 
  x,y,z 
_cell_length_a                    26.44079344 
_cell_length_b                    26.278459323824645 
_cell_length_c                    36.225770406910186 
_cell_angle_alpha                 90.72856768825986 
_cell_angle_beta                  90.93331959967237 
_cell_angle_gamma                 90.20795346470564 
loop_ 
_atom_site_label 
_atom_site_type_symbol 
_atom_site_fract_x 
_atom_site_fract_y 
_atom_site_fract_z 
_atom_site_charge 
C1          C  0.71134685  0.74069695  0.00051130     0.03100
C2          C  0.69017423  0.72677446  0.46587616    -0.13000
C3          C  0.65137960  0.69040258  0.46335739     0.00600
C4          C  0.63174576  0.66976074  0.49545687    -0.11600
C5          C  0.65056504  0.68486725  0.03025112     0.03100
C6          C  0.69063440  0.72006536  0.03264143    -0.11000
H7          H  0.70471780  0.74311463  0.44084829     0.08700
H8          H  0.60180744  0.64150962  0.49326482     0.06200
H9          H  0.70564050  0.73137803  0.05951877     0.06100
C10         C  0.20464595  0.72765775  0.99629487     0.03100
C11         C  0.22832966  0.71346125  0.46323848    -0.13000
C12         C  0.26638435  0.67627411  0.46320433     0.00600
C13         C  0.28129312  0.65397337  0.49656355    -0.11600
C14         C  0.25847069  0.66819523  0.02969467     0.03100
C15         C  0.22051274  0.70526748  0.02953158    -0.11000
H16         H  0.21690040  0.73106825  0.43754172     0.08700
H17         H  0.31014946  0.62476648  0.49673612     0.06200
H18         H  0.20282785  0.71611467  0.05523009     0.06100
C19         C  0.72115865  0.23598341  0.99613469     0.03100
C20         C  0.70546250  0.26000390  0.46312745    -0.13000
C21         C  0.66443287  0.29382759  0.46274329     0.00600
C22         C  0.64183399  0.30760881  0.49595851    -0.11600
C23         C  0.65788665  0.28609716  0.02910591     0.03100
C24         C  0.69542485  0.24856617  0.02889197    -0.11000
H25         H  0.72436509  0.25226255  0.43742370     0.08700
H26         H  0.61224459  0.33608180  0.49610482     0.06200
H27         H  0.70379475  0.22943447  0.05447516     0.06100
N28         N  0.96237460  0.90477126  0.99930294    -0.36600
N29         N  0.04200879  0.97930741  0.99189295    -0.57200
N30         N  0.96683436  0.05976746  0.98975902    -0.36600
N31         N  0.88713831  0.98523438  0.00007967    -0.57200
C32         C  0.00355371  0.87633180  0.00745406     0.27000
C33         C  0.92147076  0.87925052  0.01134942     0.27000
C34         C  0.00992826  0.08724820  0.99452610     0.26900
C35         C  0.92766667  0.09072918  0.99801558     0.26900
C36         C  0.06878944  0.93644569  0.98578541     0.35600
C37         C  0.07137172  0.01837984  0.98121707     0.35600
C38         C  0.85617628  0.94422953  0.99716343     0.35600
C39         C  0.85830642  0.02647057  0.99289268     0.35600
C40         C  0.98863636  0.83226770  0.02497769    -0.21900
C41         C  0.93677932  0.83407199  0.02738104    -0.21900
C42         C  0.99800731  0.13627160  0.00584016    -0.21900
C43         C  0.94621873  0.13873667  0.00744434    -0.21900
C44         C  0.11530959  0.94826958  0.97097372    -0.23000
C45         C  0.11697487  0.00029043  0.96811441    -0.23000
C46         C  0.80743752  0.95948786  0.98824600    -0.23000
C47         C  0.80859121  0.01155759  0.98617264    -0.23000
C48         C  0.05368288  0.88754123  0.99704127    -0.18300
C49         C  0.87052921  0.89374402  0.00544063    -0.18300
C50         C  0.87570318  0.07753654  0.99474925    -0.18300
C51         C  0.05940713  0.07022132  0.98658668    -0.18300
H52         H  0.01253765  0.80161085  0.03451694     0.14600
H53         H  0.91296061  0.80507765  0.03912544     0.14600
H54         H  0.02382237  0.16751990  0.01161479     0.14600
H55         H  0.92508173  0.17253238  0.01442454     0.14600
H56         H  0.14534808  0.92226300  0.96381530     0.12900
H57         H  0.14849415  0.02234285  0.95817987     0.12900
H58         H  0.77416711  0.93578360  0.98447321     0.12900
H59         H  0.77621446  0.03547816  0.98070680     0.12900
H60         H  0.96152869  0.93632141  0.98229311     0.26100
H61         H  0.96396868  0.02389047  0.97749522     0.26100
C62         C  0.22070230  0.22054087  0.99184914     0.03100
C63         C  0.24303892  0.23782788  0.45933864    -0.13000
C64         C  0.28109514  0.27505399  0.46097850     0.00600
C65         C  0.29662480  0.29559844  0.49512502    -0.11600
C66         C  0.27434384  0.27938680  0.02773951     0.03100
C67         C  0.23636530  0.24194839  0.02600189    -0.11000
H68         H  0.23142423  0.22190320  0.43277519     0.08700
H69         H  0.32630092  0.32419008  0.49626319     0.06200
H70         H  0.21849691  0.23022788  0.05122891     0.06100
C71         C  0.58471848  0.38664453  0.33006001     0.42400
N72         N  0.53199762  0.39908303  0.28536143     0.01300
C73         C  0.50960650  0.61340027  0.17771835    -0.06600
H74         H  0.49064450  0.64400220  0.32084814     0.06800
C75         C  0.33531264  0.53568538  0.31518821    -0.06900
Co76       Co  0.55530977  0.49347018  0.24393162     0.74200
N77         N  0.51074883  0.58126390  0.28517729    -0.26100
Co78       Co  0.45253178  0.57524040  0.24609262     0.74100
C79         C  0.34960983  0.58443783  0.33220253     0.42500
N80         N  0.38082117  0.41719135  0.28808906     0.00900
N81         N  0.39885279  0.56871696  0.28714648     0.01000
N82         N  0.57591053  0.55927614  0.17638055    -0.46900
H83         H  0.62676672  0.46186645  0.31785109     0.06800
N84         N  0.55008130  0.55051950  0.28434065     0.01300
N85         N  0.39476147  0.56669144  0.20673303     0.01100
C86         C  0.34319343  0.57926096  0.16156781     0.42700
N87         N  0.42025680  0.38658178  0.28784369    -0.25500
C88         C  0.58861885  0.42858091  0.17512978    -0.06500
N89         N  0.54337846  0.36747146  0.31234307    -0.46600
N90         N  0.38361935  0.59886688  0.18004626    -0.46900
C91         C  0.57189215  0.38049287  0.15802411     0.42400
N92         N  0.54509964  0.54875609  0.20372681     0.01300
N93         N  0.41513847  0.38319248  0.20764921    -0.25600
N94         N  0.56317126  0.43825984  0.28427751    -0.26100
N95         N  0.37620128  0.41439425  0.20767133     0.01000
H96         H  0.43505783  0.31929106  0.17331072     0.06800
H97         H  0.29962808  0.50504655  0.17293843     0.06900
N98         N  0.50610953  0.57982841  0.20500362    -0.26100
N99         N  0.36767430  0.52943223  0.28743407    -0.25700
N100        N  0.52629993  0.39648972  0.20499883     0.01300
C101        C  0.56517671  0.60045268  0.33054533     0.42700
C102        C  0.41649568  0.35397829  0.31576471    -0.07000
N103        N  0.36407250  0.52698700  0.20695031    -0.25700
H104        H  0.30636334  0.50878478  0.32268890     0.06900
N105        N  0.58356188  0.56069821  0.31101559    -0.46900
H106        H  0.44225199  0.32307616  0.32144918     0.06900
C107        C  0.35972075  0.36148724  0.16354839     0.42600
C108        C  0.59770840  0.43405387  0.31156607    -0.06500
Co109      Co  0.47359453  0.39030086  0.24652306     0.73800
N110        N  0.34932950  0.40713191  0.31506907    -0.46700
C111        C  0.55560760  0.59924330  0.15833773     0.42800
N112        N  0.53347279  0.36279245  0.17820225    -0.46600
Co113      Co  0.37104849  0.47186094  0.24751528     0.73900
C114        C  0.33027877  0.53129793  0.17916043    -0.07000
C115        C  0.51692865  0.61434599  0.31333307    -0.06500
N116        N  0.55776272  0.43553661  0.20382666    -0.26100
N117        N  0.38959032  0.60243014  0.31363780    -0.46800
H118        H  0.48483195  0.64555561  0.17422143     0.06800
C119        C  0.40835318  0.34857651  0.18055771    -0.06900
Cl120      Cl  0.46313295  0.48271835  0.24600619    -0.50000
C121        C  0.36927272  0.36759159  0.33366938     0.42600
H122        H  0.61884866  0.45388914  0.16731321     0.06800
N123        N  0.34233845  0.40309456  0.18147523    -0.46700
C124        C  0.31560804  0.37244904  0.10342782    -0.26300
C125        C  0.33612562  0.33934301  0.12976481    -0.14400
C126        C  0.33243384  0.28615629  0.12358021     0.36200
C127        C  0.31051687  0.26748092  0.09072073    -0.25800
C128        C  0.29227621  0.30065043  0.06363961    -0.15000
C129        C  0.29371682  0.35365810  0.07036979     0.37300
N130        N  0.27287677  0.38805917  0.04363043    -0.89300
H131        H  0.31738757  0.41318476  0.10841005     0.18400
H132        H  0.30886027  0.22670613  0.08588527     0.18400
N133        N  0.34900984  0.25011554  0.15047220    -0.88300
H134        H  0.27702145  0.42578214  0.05276577     0.35800
H135        H  0.23401011  0.38088864  0.04154826     0.40900
H136        H  0.33198508  0.25877765  0.17561228     0.40500
H137        H  0.38819922  0.25274861  0.15367319     0.35400
C138        C  0.27297278  0.32253862  0.40295592    -0.26300
C139        C  0.30368693  0.29432579  0.42694741    -0.14400
C140        C  0.35572179  0.28861094  0.41945691     0.36200
C141        C  0.37589725  0.31263475  0.38874873    -0.25800
C142        C  0.34549723  0.34194527  0.36511236    -0.15000
C143        C  0.29319649  0.34629737  0.37197796     0.37300
N144        N  0.26074038  0.37462071  0.34759330    -0.89300
H145        H  0.23313948  0.32678038  0.40887003     0.18400
H146        H  0.41596431  0.30867487  0.38369939     0.18400
N147        N  0.38900340  0.25813731  0.44180045    -0.88300
H148        H  0.22366198  0.37500290  0.35717393     0.35800
H149        H  0.25958668  0.35534241  0.32215432     0.40900
H150        H  0.36969934  0.23887226  0.46230704     0.40500
H151        H  0.41498519  0.28262466  0.45498753     0.35400
C152        C  0.14106614  0.10370910  0.01242168    -0.26300
C153        C  0.10147213  0.10814395  0.98643600    -0.14400
C154        C  0.10196028  0.14859051  0.46121410     0.36200
C155        C  0.14101006  0.18500996  0.46358016    -0.25800
C156        C  0.18039001  0.18094662  0.98994759    -0.15000
C157        C  0.18081749  0.13908003  0.01395070     0.37300
N158        N  0.22218424  0.13155814  0.03929764    -0.89300
H159        H  0.14121700  0.07232598  0.03155532     0.18400
H160        H  0.14048089  0.21693691  0.44495232     0.18400
N161        N  0.06253825  0.15267658  0.43362372    -0.88300
H162        H  0.23825721  0.09610568  0.03345466     0.35800
H163        H  0.20774809  0.13045575  0.06596522     0.40900
H164        H  0.06510562  0.12097149  0.41603532     0.40500
H165        H  0.06823395  0.18473974  0.41738652     0.35400
C166        C  0.77056575  0.16722068  0.46376529    -0.26300
C167        C  0.76278357  0.19690799  0.99590678    -0.14400
C168        C  0.79502354  0.18842969  0.02700468     0.36200
C169        C  0.82955688  0.14785842  0.02629968    -0.25800
C170        C  0.83749335  0.11925406  0.99401025    -0.15000
C171        C  0.80880107  0.13056035  0.46187840     0.37300
N172        N  0.81752385  0.10611018  0.42679896    -0.89300
H173        H  0.74689695  0.17212108  0.43946105     0.18400
H174        H  0.85208152  0.13968634  0.05076537     0.18400
N175        N  0.79424961  0.22183735  0.05872528    -0.88300
H176        H  0.78557247  0.08422702  0.41990268     0.35800
H177        H  0.84840563  0.08154439  0.42778442     0.40900
H178        H  0.80572045  0.25788249  0.05018404     0.40500
H179        H  0.82046044  0.21034712  0.07884169     0.35400
C180        C  0.64586688  0.35658157  0.12028502    -0.26300
C181        C  0.59362294  0.35335148  0.12604711    -0.16500
C182        C  0.56282103  0.32508794  0.10086955     0.36200
C183        C  0.58485455  0.30220107  0.06981523    -0.25800
C184        C  0.63699920  0.30575243  0.06403007    -0.15000
C185        C  0.66796191  0.33278347  0.08960526     0.37300
N186        N  0.72146451  0.33707162  0.08375192    -0.89300
H187        H  0.66951877  0.37789608  0.13972341     0.18400
H188        H  0.56126677  0.28184826  0.04977534     0.18400
N189        N  0.50910830  0.32151319  0.10594680    -0.88300
H190        H  0.73887330  0.35793671  0.10521934     0.35800
H191        H  0.72656547  0.35787373  0.05967211     0.40900
H192        H  0.50325098  0.29773178  0.12839046     0.40500
H193        H  0.49163700  0.30338165  0.08323718     0.35400
C194        C  0.67747534  0.34221331  0.40488097    -0.26300
C195        C  0.64478629  0.31555908  0.42783894    -0.14400
C196        C  0.59297001  0.31167652  0.41819605     0.36200
C197        C  0.57472664  0.33592812  0.38641926    -0.25800
C198        C  0.60701108  0.36397184  0.36386601    -0.15000
C199        C  0.65925546  0.36668384  0.37325335     0.37300
N200        N  0.69508240  0.39284391  0.35111690    -0.89300
H201        H  0.71733611  0.34511393  0.41209514     0.18400
H202        H  0.53483556  0.33299422  0.37930137     0.18400
N203        N  0.55915867  0.28278629  0.44061472    -0.88300
H204        H  0.68786498  0.43176657  0.35269008     0.35800
H205        H  0.69135057  0.37994026  0.32377301     0.40900
H206        H  0.57056140  0.24475545  0.43934569     0.40500
H207        H  0.52224855  0.28392284  0.42984349     0.35400
C208        C  0.08593220  0.80448494  0.47396968    -0.26300
C209        C  0.09210460  0.84616649  0.99822458    -0.14400
C210        C  0.13458046  0.84777798  0.02257110     0.36200
C211        C  0.17042518  0.80876901  0.02092017    -0.25800
C212        C  0.16443627  0.76703224  0.99659368    -0.15000
C213        C  0.12054507  0.76417887  0.47352632     0.37300
N214        N  0.10892156  0.72086926  0.45012001    -0.89300
H215        H  0.05311527  0.80275825  0.45565219     0.18400
H216        H  0.20339883  0.81103115  0.03905865     0.18400
N217        N  0.14221314  0.88752070  0.04977883    -0.88300
H218        H  0.07358382  0.70692502  0.45781509     0.35800
H219        H  0.13387801  0.69093531  0.45470022     0.40900
H220        H  0.11165492  0.91243010  0.05092176     0.40500
H221        H  0.17387423  0.90864826  0.04217056     0.35400
C222        C  0.29296198  0.57170883  0.10308142    -0.26300
C223        C  0.31851610  0.60281759  0.12911069    -0.14400
C224        C  0.32093036  0.65587162  0.12346333     0.36200
C225        C  0.29955761  0.67627229  0.09118226    -0.25800
C226        C  0.27553262  0.64494008  0.06462348    -0.15000
C227        C  0.27132871  0.59201962  0.07096707     0.37300
N228        N  0.24470891  0.55792390  0.04602179    -0.89300
H229        H  0.29038023  0.53104832  0.10733359     0.18400
H230        H  0.30247417  0.71678516  0.08631139     0.18400
N231        N  0.34489174  0.68889540  0.15049262    -0.88300
H232        H  0.27131732  0.53364743  0.03417300     0.35800
H233        H  0.22655589  0.57717294  0.02458767     0.40900
H234        H  0.32348463  0.68743480  0.17448424     0.40500
H235        H  0.34405350  0.72667384  0.14181309     0.35400
C236        C  0.25563071  0.63905891  0.40022404    -0.26300
C237        C  0.28825650  0.65765306  0.42819229    -0.14400
C238        C  0.34107865  0.65484227  0.42345689     0.36200
C239        C  0.36008200  0.63116351  0.39158148    -0.25800
C240        C  0.32737063  0.61007075  0.36455980    -0.15000
C241        C  0.27450890  0.61531203  0.36860400     0.37300
N242        N  0.23905334  0.59836099  0.34074242    -0.89300
H243        H  0.21503410  0.64160580  0.40349762     0.18400
H244        H  0.40062233  0.62829220  0.38811874     0.18400
N245        N  0.37507028  0.67590793  0.45106116    -0.88300
H246        H  0.24066575  0.55879684  0.33848070     0.35800
H247        H  0.24892671  0.61435400  0.31557655     0.40900
H248        H  0.36908156  0.71520309  0.45212914     0.40500
H249        H  0.41266960  0.67060414  0.44341487     0.35400
C250        C  0.75253665  0.81728823  0.02941250    -0.26300
C251        C  0.75449810  0.77729528  0.00326080    -0.14400
C252        C  0.79719161  0.77385133  0.48006651     0.36200
C253        C  0.83314727  0.81314179  0.48093831    -0.25800
C254        C  0.83073746  0.85336101  0.00666963    -0.15000
C255        C  0.79081188  0.85424313  0.03227042     0.37300
N256        N  0.78820156  0.89120125  0.06179113    -0.89300
H257        H  0.72086873  0.81999265  0.04793991     0.18400
H258        H  0.86436091  0.81146574  0.46192190     0.18400
N259        N  0.80627826  0.73076085  0.45614417    -0.88300
H260        H  0.75702932  0.91453872  0.05655298     0.35800
H261        H  0.82025228  0.91444683  0.06320850     0.40900
H262        H  0.78276223  0.70026178  0.46241416     0.40500
H263        H  0.84264707  0.71741640  0.46225233     0.35400
C264        C  0.57433052  0.66535497  0.06659243    -0.26300
C265        C  0.62715841  0.66415059  0.06381273    -0.14400
C266        C  0.65626559  0.64183113  0.09223300     0.36200
C267        C  0.63179585  0.62197861  0.12309746    -0.25800
C268        C  0.57886900  0.62354433  0.12604271    -0.15000
C269        C  0.54992298  0.64543839  0.09710441     0.37300
N270        N  0.49577965  0.64643786  0.09684801    -0.89300
H271        H  0.55165113  0.68207817  0.04472497     0.18400
H272        H  0.65421223  0.60472492  0.14486123     0.18400
N273        N  0.71028501  0.63818227  0.08921293    -0.88300
H274        H  0.48372408  0.67157002  0.11736723     0.35800
H275        H  0.48198486  0.60981439  0.10160455     0.40900
H276        H  0.71782068  0.61434748  0.06665298     0.40500
H277        H  0.72603106  0.62075961  0.11248257     0.35400
C278        C  0.57598561  0.67390697  0.37403816    -0.26300
C279        C  0.58987764  0.62428627  0.36348514    -0.14400
C280        C  0.62638921  0.59813315  0.38487100     0.36200
C281        C  0.64751185  0.62200663  0.41641729    -0.25800
C282        C  0.63263569  0.67099800  0.42731781    -0.15000
C283        C  0.59682544  0.69763809  0.40564773     0.37300
N284        N  0.57936338  0.74774955  0.41538622    -0.89300
H285        H  0.54836005  0.69457246  0.35777401     0.18400
H286        H  0.67464042  0.60166429  0.43339920     0.18400
N287        N  0.64080057  0.54697925  0.37531093    -0.88300
H288        H  0.59010176  0.77233092  0.39441459     0.35800
H289        H  0.59647682  0.76145850  0.43969417     0.40900
H290        H  0.60922131  0.52360054  0.37891631     0.40500
H291        H  0.66886863  0.53383537  0.39344870     0.35400
C292        C  0.71134681  0.74069701  0.50051119     0.03100
C293        C  0.69017429  0.72677448  0.96587624    -0.13000
C294        C  0.65137953  0.69040272  0.96335745     0.00600
C295        C  0.63174559  0.66976087  0.99545693    -0.11600
C296        C  0.65056517  0.68486721  0.53025105     0.03100
C297        C  0.69063451  0.72006535  0.53264134    -0.11000
H298        H  0.70471797  0.74311463  0.94084837     0.08700
H299        H  0.60180723  0.64150978  0.99326488     0.06200
H300        H  0.70564072  0.73137796  0.55951866     0.06100
C301        C  0.20464596  0.72765764  0.49629491     0.03100
C302        C  0.22832956  0.71346126  0.96323845    -0.13000
C303        C  0.26638410  0.67627403  0.96320433     0.00600
C304        C  0.28129278  0.65397324  0.99656357    -0.11600
C305        C  0.25847095  0.66819528  0.52969466     0.03100
C306        C  0.22051286  0.70526743  0.52953160    -0.11000
H307        H  0.21690031  0.73106826  0.93754166     0.08700
H308        H  0.31014899  0.62476629  0.99673612     0.06200
H309        H  0.20282800  0.71611458  0.55523017     0.06100
C310        C  0.72115877  0.23598346  0.49613461     0.03100
C311        C  0.70546247  0.26000401  0.96312758    -0.13000
C312        C  0.66443283  0.29382772  0.96274342     0.00600
C313        C  0.64183391  0.30760888  0.99595862    -0.11600
C314        C  0.65788675  0.28609715  0.52910584     0.03100
C315        C  0.69542505  0.24856629  0.52889192    -0.11000
H316        H  0.72436508  0.25226272  0.93742384     0.08700
H317        H  0.61224446  0.33608183  0.99610497     0.06200
H318        H  0.70379501  0.22943473  0.55447517     0.06100
N319        N  0.96237461  0.90477125  0.49930276    -0.36600
N320        N  0.04200882  0.97930740  0.49189301    -0.57200
N321        N  0.96683444  0.05976740  0.48975911    -0.36600
N322        N  0.88713833  0.98523439  0.50007951    -0.57200
C323        C  0.00355370  0.87633179  0.50745400     0.27000
C324        C  0.92147075  0.87925052  0.51134930     0.27000
C325        C  0.00992832  0.08724807  0.49452610     0.26900
C326        C  0.92766678  0.09072908  0.49801561     0.26900
C327        C  0.06878949  0.93644569  0.48578552     0.35600
C328        C  0.07137179  0.01837980  0.48121712     0.35600
C329        C  0.85617629  0.94422955  0.49716323     0.35600
C330        C  0.85830648  0.02647059  0.49289255     0.35600
C331        C  0.98863628  0.83226779  0.52497770    -0.21900
C332        C  0.93677924  0.83407206  0.52738102    -0.21900
C333        C  0.99800740  0.13627149  0.50584012    -0.21900
C334        C  0.94621883  0.13873659  0.50744433    -0.21900
C335        C  0.11530965  0.94826957  0.47097386    -0.23000
C336        C  0.11697495  0.00029040  0.46811450    -0.23000
C337        C  0.80743753  0.95948787  0.48824580    -0.23000
C338        C  0.80859127  0.01155761  0.48617249    -0.23000
C339        C  0.05368290  0.88754121  0.49704129    -0.18300
C340        C  0.87052921  0.89374405  0.50544044    -0.18300
C341        C  0.87570326  0.07753655  0.49474917    -0.18300
C342        C  0.05940717  0.07022126  0.48658665    -0.18300
H343        H  0.01253755  0.80161099  0.53451701     0.14600
H344        H  0.91296052  0.80507769  0.53912540     0.14600
H345        H  0.02382251  0.16751975  0.51161471     0.14600
H346        H  0.92508185  0.17253232  0.51442449     0.14600
H347        H  0.14534808  0.92226292  0.46381543     0.12900
H348        H  0.14849420  0.02234284  0.45817990     0.12900
H349        H  0.77416712  0.93578362  0.48447294     0.12900
H350        H  0.77621459  0.03547822  0.48070666     0.12900
H351        H  0.96152874  0.93632121  0.48229292     0.26100
H352        H  0.96396877  0.02389024  0.47749515     0.26100
C353        C  0.22070236  0.22054070  0.49184922     0.03100
C354        C  0.24303888  0.23782802  0.95933855    -0.13000
C355        C  0.28109506  0.27505421  0.96097841     0.00600
C356        C  0.29662477  0.29559865  0.99512491    -0.11600
C357        C  0.27434390  0.27938658  0.52773963     0.03100
C358        C  0.23636533  0.24194822  0.52600198    -0.11000
H359        H  0.23142423  0.22190328  0.93277512     0.08700
H360        H  0.32630093  0.32419030  0.99626311     0.06200
H361        H  0.21849686  0.23022773  0.55122896     0.06100
C362        C  0.58471853  0.38664478  0.83006015     0.42400
N363        N  0.53199771  0.39908331  0.78536154     0.01300
C364        C  0.50960649  0.61340020  0.67771826    -0.06600
H365        H  0.49064466  0.64400239  0.82084811     0.06800
C366        C  0.33531252  0.53568559  0.81518813    -0.06900
Co367      Co  0.55530989  0.49347028  0.74393168     0.74200
N368        N  0.51074890  0.58126393  0.78517735    -0.26100
Co369      Co  0.45253178  0.57524044  0.74609268     0.74100
C370        C  0.34960980  0.58443800  0.83220248     0.42500
N371        N  0.38082130  0.41719143  0.78808909     0.00900
N372        N  0.39885281  0.56871700  0.78714650     0.01000
N373        N  0.57591053  0.55927613  0.67638053    -0.46900
H374        H  0.62676705  0.46186657  0.81785107     0.06800
N375        N  0.55008137  0.55051959  0.78434072     0.01300
N376        N  0.39476138  0.56669157  0.70673317     0.01100
C377        C  0.34319357  0.57926097  0.66156779     0.42700
N378        N  0.42025690  0.38658186  0.78784372    -0.25500
C379        C  0.58861899  0.42858104  0.67512977    -0.06500
N380        N  0.54337853  0.36747177  0.81234320    -0.46600
N381        N  0.38361933  0.59886699  0.68004640    -0.46900
C382        C  0.57189224  0.38049308  0.65802403     0.42400
N383        N  0.54509961  0.54875609  0.70372680     0.01300
N384        N  0.41513862  0.38319259  0.70764923    -0.25600
N385        N  0.56317145  0.43826004  0.78427758    -0.26100
N386        N  0.37620142  0.41439437  0.70767133     0.01000
H387        H  0.43505811  0.31929117  0.67331082     0.06800
H388        H  0.29962827  0.50504646  0.67293827     0.06900
N389        N  0.50610949  0.57982837  0.70500358    -0.26100
N390        N  0.36767424  0.52943234  0.78743405    -0.25700
N391        N  0.52630012  0.39648985  0.70499886     0.01300
C392        C  0.56517681  0.60045286  0.83054535     0.42700
C393        C  0.41649583  0.35397841  0.81576479    -0.07000
N394        N  0.36407249  0.52698703  0.70695033    -0.25700
H395        H  0.30636327  0.50878497  0.82268893     0.06900
N396        N  0.58356200  0.56069839  0.81101565    -0.46900
H397        H  0.44225223  0.32307637  0.82144929     0.06900
C398        C  0.35972085  0.36148719  0.66354850     0.42600
C399        C  0.59770862  0.43405405  0.81156614    -0.06500
Co400      Co  0.47359466  0.39030101  0.74652311     0.73800
N401        N  0.34932968  0.40713210  0.81506915    -0.46700
C402        C  0.55560769  0.59924332  0.65833771     0.42800
N403        N  0.53347286  0.36279269  0.67820218    -0.46600
Co404      Co  0.37104854  0.47186101  0.74751529     0.73900
C405        C  0.33027891  0.53129789  0.67916035    -0.07000
C406        C  0.51692875  0.61434612  0.81333307    -0.06500
N407        N  0.55776297  0.43553669  0.70382673    -0.26100
N408        N  0.38959035  0.60243023  0.81363780    -0.46800
H409        H  0.48483200  0.64555555  0.67422132     0.06800
C410        C  0.40835335  0.34857656  0.68055779    -0.06900
Cl411      Cl  0.46313300  0.48271846  0.74600628    -0.50000
C412        C  0.36927282  0.36759170  0.83366941     0.42600
H413        H  0.61884882  0.45388924  0.66731318     0.06800
N414        N  0.34233855  0.40309457  0.68147526    -0.46700
C415        C  0.31560829  0.37244895  0.60342784    -0.26300
C416        C  0.33612582  0.33934298  0.62976488    -0.14400
C417        C  0.33243408  0.28615626  0.62358033     0.36200
C418        C  0.31051710  0.26748079  0.59072088    -0.25800
C419        C  0.29227637  0.30065024  0.56363971    -0.15000
C420        C  0.29371706  0.35365794  0.57036984     0.37300
N421        N  0.27287696  0.38805898  0.54363044    -0.89300
H422        H  0.31738784  0.41318468  0.60841007     0.18400
H423        H  0.30886055  0.22670597  0.58588551     0.18400
N424        N  0.34901004  0.25011565  0.65047240    -0.88300
H425        H  0.27702178  0.42578200  0.55276573     0.35800
H426        H  0.23401043  0.38088854  0.54154829     0.40900
H427        H  0.33198539  0.25877785  0.67561240     0.40500
H428        H  0.38819965  0.25274879  0.65367342     0.35400
C429        C  0.27297266  0.32253890  0.90295584    -0.26300
C430        C  0.30368680  0.29432604  0.92694732    -0.14400
C431        C  0.35572168  0.28861113  0.91945683     0.36200
C432        C  0.37589713  0.31263478  0.88874861    -0.25800
C433        C  0.34549716  0.34194529  0.86511225    -0.15000
C434        C  0.29319641  0.34629757  0.87197786     0.37300
N435        N  0.26074035  0.37462098  0.84759320    -0.89300
H436        H  0.23313937  0.32678071  0.90886994     0.18400
H437        H  0.41596420  0.30867482  0.88369926     0.18400
N438        N  0.38900323  0.25813750  0.94180037    -0.88300
H439        H  0.22366194  0.37500323  0.85717383     0.35800
H440        H  0.25958660  0.35534271  0.82215421     0.40900
H441        H  0.36969926  0.23887252  0.96230695     0.40500
H442        H  0.41498516  0.28262496  0.95498743     0.35400
C443        C  0.14106608  0.10370903  0.51242175    -0.26300
C444        C  0.10147216  0.10814386  0.48643599    -0.14400
C445        C  0.10196021  0.14859063  0.96121411     0.36200
C446        C  0.14101000  0.18501009  0.96358011    -0.25800
C447        C  0.18039010  0.18094643  0.48994762    -0.15000
C448        C  0.18081753  0.13907986  0.51395074     0.37300
N449        N  0.22218421  0.13155803  0.53929775    -0.89300
H450        H  0.14121679  0.07232601  0.53155547     0.18400
H451        H  0.14048093  0.21693693  0.94495216     0.18400
N452        N  0.06253832  0.15267650  0.93362362    -0.88300
H453        H  0.23825722  0.09610561  0.53345492     0.35800
H454        H  0.20774786  0.13045577  0.56596535     0.40900
H455        H  0.06510606  0.12097142  0.91603527     0.40500
H456        H  0.06823403  0.18473968  0.91738639     0.35400
C457        C  0.77056567  0.16722063  0.96376540    -0.26300
C458        C  0.76278364  0.19690801  0.49590668    -0.14400
C459        C  0.79502354  0.18842962  0.52700462     0.36200
C460        C  0.82955689  0.14785837  0.52629963    -0.25800
C461        C  0.83749346  0.11925412  0.49401017    -0.15000
C462        C  0.80880096  0.13056027  0.96187849     0.37300
N463        N  0.81752376  0.10611013  0.92679903    -0.89300
H464        H  0.74689687  0.17212111  0.93946118     0.18400
H465        H  0.85208149  0.13968624  0.55076534     0.18400
N466        N  0.79424964  0.22183730  0.55872521    -0.88300
H467        H  0.78557233  0.08422704  0.91990267     0.35800
H468        H  0.84840548  0.08154430  0.92778447     0.40900
H469        H  0.80572041  0.25788243  0.55018393     0.40500
H470        H  0.82046042  0.21034707  0.57884158     0.35400
C471        C  0.64586704  0.35658174  0.62028491    -0.26300
C472        C  0.59362312  0.35335156  0.62604709    -0.16500
C473        C  0.56282126  0.32508783  0.60086964     0.36200
C474        C  0.58485473  0.30220093  0.56981530    -0.25800
C475        C  0.63699935  0.30575243  0.56403001    -0.15000
C476        C  0.66796207  0.33278357  0.58960518     0.37300
N477        N  0.72146460  0.33707179  0.58375173    -0.89300
H478        H  0.66951892  0.37789644  0.63972319     0.18400
H479        H  0.56126693  0.28184805  0.54977547     0.18400
N480        N  0.50910854  0.32151304  0.60594694    -0.88300
H481        H  0.73887349  0.35793714  0.60521927     0.35800
H482        H  0.72656543  0.35787382  0.55967200     0.40900
H483        H  0.50325129  0.29773172  0.62839071     0.40500
H484        H  0.49163726  0.30338143  0.58323744     0.35400
C485        C  0.67747526  0.34221333  0.90488104    -0.26300
C486        C  0.64478621  0.31555915  0.92783904    -0.14400
C487        C  0.59296997  0.31167649  0.91819611     0.36200
C488        C  0.57472667  0.33592799  0.88641926    -0.25800
C489        C  0.60701111  0.36397185  0.86386606    -0.15000
C490        C  0.65925542  0.36668387  0.87325342     0.37300
N491        N  0.69508239  0.39284394  0.85111695    -0.89300
H492        H  0.71733599  0.34511396  0.91209521     0.18400
H493        H  0.53483559  0.33299404  0.87930133     0.18400
N494        N  0.55915868  0.28278624  0.94061479    -0.88300
H495        H  0.68786497  0.43176671  0.85269014     0.35800
H496        H  0.69135062  0.37994029  0.82377321     0.40900
H497        H  0.57056136  0.24475553  0.93934584     0.40500
H498        H  0.52224842  0.28392273  0.92984348     0.35400
C499        C  0.08593209  0.80448495  0.97396981    -0.26300
C500        C  0.09210463  0.84616645  0.49822454    -0.14400
C501        C  0.13458036  0.84777784  0.52257115     0.36200
C502        C  0.17042503  0.80876881  0.52092023    -0.25800
C503        C  0.16443620  0.76703207  0.49659368    -0.15000
C504        C  0.12054501  0.76417899  0.97352642     0.37300
N505        N  0.10892149  0.72086936  0.95012015    -0.89300
H506        H  0.05311508  0.80275822  0.95565236     0.18400
H507        H  0.20339863  0.81103091  0.53905873     0.18400
N508        N  0.14221301  0.88752053  0.54977895    -0.88300
H509        H  0.07358364  0.70692520  0.95781527     0.35800
H510        H  0.13387779  0.69093553  0.95470036     0.40900
H511        H  0.11165482  0.91242995  0.55092188     0.40500
H512        H  0.17387413  0.90864811  0.54217075     0.35400
C513        C  0.29296195  0.57170896  0.60308147    -0.26300
C514        C  0.31851629  0.60281768  0.62911066    -0.14400
C515        C  0.32093065  0.65587166  0.62346325     0.36200
C516        C  0.29955792  0.67627237  0.59118218    -0.25800
C517        C  0.27553290  0.64494017  0.56462343    -0.15000
C518        C  0.27132878  0.59201978  0.57096707     0.37300
N519        N  0.24470889  0.55792406  0.54602186    -0.89300
H520        H  0.29037997  0.53104854  0.60733374     0.18400
H521        H  0.30247447  0.71678523  0.58631128     0.18400
N522        N  0.34489202  0.68889549  0.65049252    -0.88300
H523        H  0.27131704  0.53364757  0.53417313     0.35800
H524        H  0.22655596  0.57717334  0.52458750     0.40900
H525        H  0.32348476  0.68743486  0.67448418     0.40500
H526        H  0.34405385  0.72667370  0.64181301     0.35400
C527        C  0.25563061  0.63905895  0.90022399    -0.26300
C528        C  0.28825635  0.65765297  0.92819233    -0.14400
C529        C  0.34107852  0.65484212  0.92345699     0.36200
C530        C  0.36008192  0.63116349  0.89158153    -0.25800
C531        C  0.32737060  0.61007096  0.86455975    -0.15000
C532        C  0.27450888  0.61531227  0.86860390     0.37300
N533        N  0.23905342  0.59836126  0.84074225    -0.89300
H534        H  0.21503398  0.64160574  0.90349755     0.18400
H535        H  0.40062225  0.62829206  0.88811885     0.18400
N536        N  0.37507012  0.67590757  0.95106136    -0.88300
H537        H  0.24066587  0.55879712  0.83848051     0.35800
H538        H  0.24892689  0.61435429  0.81557640     0.40900
H539        H  0.36908146  0.71520270  0.95212949     0.40500
H540        H  0.41266949  0.67060377  0.94341506     0.35400
C541        C  0.75253653  0.81728838  0.52941226    -0.26300
C542        C  0.75449803  0.77729542  0.50326061    -0.14400
C543        C  0.79719156  0.77385129  0.98006664     0.36200
C544        C  0.83314712  0.81314184  0.98093837    -0.25800
C545        C  0.83073749  0.85336102  0.50666947    -0.15000
C546        C  0.79081178  0.85424323  0.53227021     0.37300
N547        N  0.78820151  0.89120131  0.56179091    -0.89300
H548        H  0.72086857  0.81999287  0.54793968     0.18400
H549        H  0.86436065  0.81146585  0.96192190     0.18400
N550        N  0.80627817  0.73076078  0.95614429    -0.88300
H551        H  0.75702915  0.91453894  0.55655268     0.35800
H552        H  0.82025213  0.91444676  0.56320832     0.40900
H553        H  0.78276227  0.70026168  0.96241436     0.40500
H554        H  0.84264707  0.71741639  0.96225238     0.35400
C555        C  0.57433063  0.66535493  0.56659235    -0.26300
C556        C  0.62715853  0.66415053  0.56381263    -0.14400
C557        C  0.65626573  0.64183113  0.59223288     0.36200
C558        C  0.63179601  0.62197858  0.62309735    -0.25800
C559        C  0.57886912  0.62354432  0.62604265    -0.15000
C560        C  0.54992310  0.64543842  0.59710437     0.37300
N561        N  0.49577975  0.64643785  0.59684796    -0.89300
H562        H  0.55165123  0.68207805  0.54472486     0.18400
H563        H  0.65421241  0.60472494  0.64486112     0.18400
N564        N  0.71028518  0.63818247  0.58921285    -0.88300
H565        H  0.48372412  0.67156985  0.61736702     0.35800
H566        H  0.48198499  0.60981422  0.60160453     0.40900
H567        H  0.71782103  0.61434756  0.56665292     0.40500
H568        H  0.72603130  0.62076009  0.61248253     0.35400
C569        C  0.57598586  0.67390716  0.87403811    -0.26300
C570        C  0.58987763  0.62428633  0.86348523    -0.14400
C571        C  0.62638910  0.59813314  0.88487114     0.36200
C572        C  0.64751180  0.62200668  0.91641738    -0.25800
C573        C  0.63263571  0.67099813  0.92731786    -0.15000
C574        C  0.59682567  0.69763830  0.90564766     0.37300
N575        N  0.57936367  0.74774979  0.91538618    -0.89300
H576        H  0.54836047  0.69457272  0.85777384     0.18400
H577        H  0.67464035  0.60166435  0.93339929     0.18400
N578        N  0.64080036  0.54697916  0.87531112    -0.88300
H579        H  0.59010223  0.77233132  0.89441442     0.35800
H580        H  0.59647684  0.76145863  0.93969398     0.40900
H581        H  0.60922123  0.52360057  0.87891647     0.40500
H582        H  0.66886851  0.53383522  0.89344893     0.35400
loop_ 
_geom_bond_atom_site_label_1 
_geom_bond_atom_site_label_2 
_geom_bond_distance 
_geom_bond_site_symmetry_2 
_ccdc_geom_bond_type 
C1            C6   1.408       .  A
C1          C293   1.409   1_554  A
C1          C251   1.491       .  S
C2            C3   1.401       .  A
C2          C292   1.409       .  A
C2            H7   1.084       .  S
C3            C4   1.396       .  A
C3          C282   1.473       .  S
C4          C296   1.400       .  A
C4            H8   1.085       .  S
C5            C6   1.405       .  A
C5          C295   1.400   1_554  A
C5          C265   1.482       .  S
C6            H9   1.083       .  S
C10          C15   1.405   1_556  A
C10         C302   1.407       .  A
C10         C212   1.486       .  S
C11          C12   1.405       .  A
C11         C301   1.407       .  A
C11          H16   1.084       .  S
C12          C13   1.401       .  A
C12         C237   1.481       .  S
C13         C305   1.399       .  A
C13          H17   1.084       .  S
C14          C15   1.401       .  A
C14         C304   1.399   1_554  A
C14         C226   1.477       .  S
C15          H18   1.084       .  S
C19          C24   1.414   1_556  A
C19         C311   1.416       .  A
C19         C167   1.508       .  S
C20          C21   1.405       .  A
C20         C310   1.416       .  A
C20          H25   1.081       .  S
C21          C22   1.396       .  A
C21         C195   1.481       .  S
C22         C314   1.394       .  A
C22          H26   1.085       .  S
C23          C24   1.402       .  A
C23         C313   1.394   1_554  A
C23         C184   1.477       .  S
C24          H27   1.080       .  S
N28          C33   1.352   1_556  A
N28          C32   1.354   1_656  A
N28          H60   1.039       .  S
N29          C36   1.350       .  A
N29          C37   1.349   1_565  A
N30          C35   1.354       .  A
N30          C34   1.354   1_655  A
N30          H61   1.039       .  S
N31          C38   1.353   1_554  A
N31          C39   1.353   1_564  A
C32          C40   1.387   1_455  A
C32          C48   1.415   1_554  A
C33          C49   1.415       .  A
C33          C41   1.387       .  A
C34          C42   1.386   1_456  A
C34          C51   1.417       .  A
C35          C50   1.419       .  A
C35          C43   1.388   1_556  A
C36          C48   1.411       .  A
C36          C44   1.386       .  A
C37          C51   1.411       .  A
C37          C45   1.386       .  A
C38          C46   1.385       .  A
C38          C49   1.416   1_556  A
C39          C47   1.387       .  A
C39          C50   1.417       .  A
C40          C41   1.376       .  A
C40          H52   1.082   1_655  S
C41          H53   1.082       .  S
C42          C43   1.373       .  A
C42          H54   1.082   1_655  S
C43          H55   1.081       .  S
C44          C45   1.373   1_565  A
C44          H56   1.082       .  S
C45          H57   1.082       .  S
C46          C47   1.372   1_565  A
C46          H58   1.082       .  S
C47          H59   1.081       .  S
C48         C209   1.491       .  S
C49         C254   1.493       .  S
C50         C170   1.494       .  S
C51         C153   1.491       .  S
C62          C67   1.408   1_556  A
C62         C354   1.406       .  A
C62         C156   1.487       .  S
C63          C64   1.401       .  A
C63         C353   1.406       .  A
C63          H68   1.084       .  S
C64          C65   1.398       .  A
C64         C139   1.473       .  S
C65         C357   1.399       .  A
C65          H69   1.084       .  S
C66          C67   1.403       .  A
C66         C356   1.399   1_554  A
C66         C128   1.479       .  S
C67          H70   1.083       .  S
C71         C108   1.464       .  S
C71         C198   1.483       .  S
C71          N89   1.351       .  A
N72          N89   1.322       .  A
N72          N94   1.318       .  A
N72        Co109   2.082       .  S
C73         C111   1.461       .  S
C73         H118   1.079       .  S
C73          N98   1.337       .  A
H74         C115   1.081       .  S
C75          C79   1.460       .  S
C75         H104   1.080       .  S
C75          N99   1.340       .  A
Co76         N94   2.081       .  S
Co76         N84   2.088       .  S
Co76        N116   2.093       .  S
Co76         N92   2.085       .  S
Co76       Cl120   2.455       .  S
N77         C115   1.339       .  A
N77          N84   1.320       .  A
N77         Co78   2.079       .  S
Co78         N81   2.081       .  S
Co78         N98   2.076       .  S
Co78         N85   2.082       .  S
Co78       Cl120   2.448       .  S
C79         C240   1.476       .  S
C79         N117   1.349       .  A
N80          N87   1.319       .  A
N80         N110   1.323       .  A
N80        Co113   2.082       .  S
N81          N99   1.319       .  A
N81         N117   1.324       .  A
N82         C111   1.352       .  A
N82          N92   1.324       .  A
H83         C108   1.078       .  S
N84         N105   1.324       .  A
N85         N103   1.320       .  A
N85          N90   1.323       .  A
C86         C114   1.461       .  S
C86         C223   1.479       .  S
C86          N90   1.349       .  A
N87         C102   1.339       .  A
N87        Co109   2.076       .  S
C88          C91   1.464       .  S
C88         H122   1.082       .  S
C88         N116   1.343       .  A
C91         C181   1.478       .  S
C91         N112   1.346       .  A
N92          N98   1.318       .  A
N93         C119   1.339       .  A
N93          N95   1.318       .  A
N93        Co109   2.080       .  S
N94         C108   1.341       .  A
N95         N123   1.324       .  A
N95        Co113   2.082       .  S
H96         C119   1.079       .  S
H97         C114   1.081       .  S
N99        Co113   2.083       .  S
N100        N112   1.322       .  A
N100        N116   1.320       .  A
N100       Co109   2.075       .  S
C101        C115   1.460       .  S
C101        C279   1.482       .  S
C101        N105   1.351       .  A
C102        C121   1.460       .  S
C102        H106   1.081       .  S
N103        C114   1.341       .  A
N103       Co113   2.083       .  S
C107        C119   1.460       .  S
C107        C125   1.476       .  S
C107        N123   1.350       .  A
Co109      Cl120   2.446       .  S
N110        C121   1.350       .  A
C111        C268   1.481       .  S
Co113      Cl120   2.452       .  S
C121        C142   1.479       .  S
C124        C125   1.403       .  A
C124        C129   1.405       .  A
C124        H131   1.084       .  S
C125        C126   1.415       .  A
C126        C127   1.398       .  A
C126        N133   1.432       .  S
C127        C128   1.401       .  A
C127        H132   1.084       .  S
C128        C129   1.411       .  A
C129        N130   1.438       .  S
N130        H134   1.046       .  S
N130        H135   1.045       .  S
N133        H136   1.045       .  S
N133        H137   1.043       .  S
C138        C139   1.401       .  A
C138        C143   1.404       .  A
C138        H145   1.084       .  S
C139        C140   1.415       .  A
C140        C141   1.398       .  A
C140        N147   1.438       .  S
C141        C142   1.404       .  A
C141        H146   1.083       .  S
C142        C143   1.414       .  A
C143        N144   1.438       .  S
N144        H148   1.045       .  S
N144        H149   1.046       .  S
N147        H150   1.043       .  S
N147        H151   1.045       .  S
C152        C153   1.403   1_554  A
C152        C157   1.401       .  A
C152        H159   1.084       .  S
C153        C445   1.411       .  A
C154        C155   1.406       .  A
C154        C444   1.411       .  A
C154        N161   1.438       .  S
C155        C447   1.407       .  A
C155        H160   1.083       .  S
C156        C157   1.411   1_556  A
C156        C446   1.407       .  A
C157        N158   1.432       .  S
N158        H162   1.046       .  S
N158        H163   1.045       .  S
N161        H164   1.045       .  S
N161        H165   1.046       .  S
C166        C171   1.401       .  A
C166        C458   1.412       .  A
C166        H173   1.081       .  S
C167        C168   1.422   1_556  A
C167        C457   1.412       .  A
C168        C169   1.406       .  A
C168        N175   1.438       .  S
C169        C170   1.401   1_554  A
C169        H174   1.084       .  S
C170        C462   1.414       .  A
C171        C461   1.414       .  A
C171        N172   1.439       .  S
N172        H176   1.045       .  S
N172        H177   1.043       .  S
N175        H178   1.046       .  S
N175        H179   1.046       .  S
C180        C181   1.403       .  A
C180        C185   1.405       .  A
C180        H187   1.083       .  S
C181        C182   1.415       .  A
C182        C183   1.405       .  A
C182        N189   1.438       .  S
C183        C184   1.401       .  A
C183        H188   1.084       .  S
C184        C185   1.410       .  A
C185        N186   1.438       .  S
N186        H190   1.045       .  S
N186        H191   1.046       .  S
N189        H192   1.045       .  S
N189        H193   1.046       .  S
C194        C195   1.401       .  A
C194        C199   1.400       .  A
C194        H201   1.084       .  S
C195        C196   1.411       .  A
C196        C197   1.402       .  A
C196        N203   1.439       .  S
C197        C198   1.405       .  A
C197        H202   1.084       .  S
C198        C199   1.419       .  A
C199        N200   1.431       .  S
N200        H204   1.042       .  S
N200        H205   1.046       .  S
N203        H206   1.046       .  S
N203        H207   1.046       .  S
C208        C213   1.402       .  A
C208        C500   1.403       .  A
C208        H215   1.084       .  S
C209        C210   1.417   1_556  A
C209        C499   1.403       .  A
C210        C211   1.400       .  A
C210        N217   1.438       .  S
C211        C212   1.405   1_554  A
C211        H216   1.084       .  S
C212        C504   1.420       .  A
C213        C503   1.420       .  A
C213        N214   1.440       .  S
N214        H218   1.046       .  S
N214        H219   1.042       .  S
N217        H220   1.043       .  S
N217        H221   1.045       .  S
C222        C223   1.403       .  A
C222        C227   1.401       .  A
C222        H229   1.084       .  S
C223        C224   1.413       .  A
C224        C225   1.404       .  A
C224        N231   1.438       .  S
C225        C226   1.401       .  A
C225        H230   1.084       .  S
C226        C227   1.417       .  A
C227        N228   1.438       .  S
N228        H232   1.045       .  S
N228        H233   1.043       .  S
N231        H234   1.046       .  S
N231        H235   1.045       .  S
C236        C237   1.402       .  A
C236        C241   1.398       .  A
C236        H243   1.084       .  S
C237        C238   1.412       .  A
C238        C239   1.406       .  A
C238        N245   1.438       .  S
C239        C240   1.403       .  A
C239        H244   1.084       .  S
C240        C241   1.415       .  A
C241        N242   1.432       .  S
N242        H246   1.043       .  S
N242        H247   1.045       .  S
N245        H248   1.046       .  S
N245        H249   1.046       .  S
C250        C251   1.408       .  A
C250        C255   1.402       .  A
C250        H257   1.084       .  S
C251        C543   1.421   1_554  A
C252        C253   1.401       .  A
C252        C542   1.421       .  A
C252        N259   1.440       .  S
C253        C545   1.403       .  A
C253        H258   1.084       .  S
C254        C255   1.417       .  A
C254        C544   1.403   1_554  A
C255        N256   1.438       .  S
N256        H260   1.045       .  S
N256        H261   1.043       .  S
N259        H262   1.042       .  S
N259        H263   1.046       .  S
C264        C265   1.403       .  A
C264        C269   1.396       .  A
C264        H271   1.084       .  S
C265        C266   1.410       .  A
C266        C267   1.406       .  A
C266        N273   1.438       .  S
C267        C268   1.406       .  A
C267        H272   1.084       .  S
C268        C269   1.417       .  A
C269        N270   1.432       .  S
N270        H274   1.043       .  S
N270        H275   1.045       .  S
N273        H276   1.046       .  S
N273        H277   1.046       .  S
C278        C279   1.406       .  A
C278        C283   1.401       .  A
C278        H285   1.083       .  S
C279        C280   1.414       .  A
C280        C281   1.404       .  A
C280        N287   1.438       .  S
C281        C282   1.401       .  A
C281        H286   1.084       .  S
C282        C283   1.413       .  A
C283        N284   1.439       .  S
N284        H288   1.046       .  S
N284        H289   1.043       .  S
N287        H290   1.046       .  S
N287        H291   1.046       .  S
C292        C297   1.408       .  A
C292        C542   1.491       .  S
C293        C294   1.401       .  A
C293        H298   1.084       .  S
C294        C295   1.396       .  A
C294        C573   1.473       .  S
C295        H299   1.085       .  S
C296        C297   1.405       .  A
C296        C556   1.482       .  S
C297        H300   1.083       .  S
C301        C306   1.405       .  A
C301        C503   1.486       .  S
C302        C303   1.405       .  A
C302        H307   1.084       .  S
C303        C304   1.401       .  A
C303        C528   1.481       .  S
C304        H308   1.084       .  S
C305        C306   1.401       .  A
C305        C517   1.477       .  S
C306        H309   1.084       .  S
C310        C315   1.414       .  A
C310        C458   1.508       .  S
C311        C312   1.405       .  A
C311        H316   1.081       .  S
C312        C313   1.396       .  A
C312        C486   1.481       .  S
C313        H317   1.085       .  S
C314        C315   1.402       .  A
C314        C475   1.477       .  S
C315        H318   1.080       .  S
N319        C324   1.352       .  A
N319        C323   1.354   1_655  A
N319        H351   1.039       .  S
N320        C327   1.350       .  A
N320        C328   1.349   1_565  A
N321        C326   1.354       .  A
N321        C325   1.354   1_655  A
N321        H352   1.039       .  S
N322        C329   1.353       .  A
N322        C330   1.353   1_565  A
C323        C331   1.387   1_455  A
C323        C339   1.415       .  A
C324        C340   1.415       .  A
C324        C332   1.387       .  A
C325        C333   1.386   1_455  A
C325        C342   1.417       .  A
C326        C341   1.419       .  A
C326        C334   1.388       .  A
C327        C339   1.411       .  A
C327        C335   1.386       .  A
C328        C342   1.411       .  A
C328        C336   1.386       .  A
C329        C337   1.385       .  A
C329        C340   1.416       .  A
C330        C338   1.387       .  A
C330        C341   1.417       .  A
C331        C332   1.376       .  A
C331        H343   1.082   1_655  S
C332        H344   1.082       .  S
C333        C334   1.373       .  A
C333        H345   1.082   1_655  S
C334        H346   1.081       .  S
C335        C336   1.373   1_565  A
C335        H347   1.082       .  S
C336        H348   1.082       .  S
C337        C338   1.372   1_565  A
C337        H349   1.082       .  S
C338        H350   1.081       .  S
C339        C500   1.491       .  S
C340        C545   1.493       .  S
C341        C461   1.494       .  S
C342        C444   1.491       .  S
C353        C358   1.408       .  A
C353        C447   1.487       .  S
C354        C355   1.401       .  A
C354        H359   1.084       .  S
C355        C356   1.398       .  A
C355        C430   1.473       .  S
C356        H360   1.084       .  S
C357        C358   1.403       .  A
C357        C419   1.479       .  S
C358        H361   1.083       .  S
C362        C399   1.464       .  S
C362        C489   1.483       .  S
C362        N380   1.351       .  A
N363        N380   1.322       .  A
N363        N385   1.318       .  A
N363       Co400   2.082       .  S
C364        C402   1.461       .  S
C364        H409   1.079       .  S
C364        N389   1.337       .  A
H365        C406   1.081       .  S
C366        C370   1.460       .  S
C366        H395   1.080       .  S
C366        N390   1.340       .  A
Co367       N385   2.081       .  S
Co367       N375   2.088       .  S
Co367       N407   2.093       .  S
Co367       N383   2.085       .  S
Co367      Cl411   2.455       .  S
N368        C406   1.339       .  A
N368        N375   1.320       .  A
N368       Co369   2.079       .  S
Co369       N372   2.081       .  S
Co369       N389   2.076       .  S
Co369       N376   2.082       .  S
Co369      Cl411   2.448       .  S
C370        C531   1.476       .  S
C370        N408   1.349       .  A
N371        N378   1.319       .  A
N371        N401   1.323       .  A
N371       Co404   2.082       .  S
N372        N390   1.319       .  A
N372        N408   1.324       .  A
N373        C402   1.352       .  A
N373        N383   1.324       .  A
H374        C399   1.078       .  S
N375        N396   1.324       .  A
N376        N394   1.320       .  A
N376        N381   1.323       .  A
C377        C405   1.461       .  S
C377        C514   1.479       .  S
C377        N381   1.349       .  A
N378        C393   1.339       .  A
N378       Co400   2.076       .  S
C379        C382   1.464       .  S
C379        H413   1.082       .  S
C379        N407   1.343       .  A
C382        C472   1.478       .  S
C382        N403   1.346       .  A
N383        N389   1.318       .  A
N384        C410   1.339       .  A
N384        N386   1.318       .  A
N384       Co400   2.080       .  S
N385        C399   1.341       .  A
N386        N414   1.324       .  A
N386       Co404   2.082       .  S
H387        C410   1.079       .  S
H388        C405   1.081       .  S
N390       Co404   2.083       .  S
N391        N403   1.322       .  A
N391        N407   1.320       .  A
N391       Co400   2.075       .  S
C392        C406   1.460       .  S
C392        C570   1.482       .  S
C392        N396   1.351       .  A
C393        C412   1.460       .  S
C393        H397   1.081       .  S
N394        C405   1.341       .  A
N394       Co404   2.083       .  S
C398        C410   1.460       .  S
C398        C416   1.476       .  S
C398        N414   1.350       .  A
Co400      Cl411   2.446       .  S
N401        C412   1.350       .  A
C402        C559   1.481       .  S
Co404      Cl411   2.452       .  S
C412        C433   1.479       .  S
C415        C416   1.403       .  A
C415        C420   1.405       .  A
C415        H422   1.084       .  S
C416        C417   1.415       .  A
C417        C418   1.398       .  A
C417        N424   1.432       .  S
C418        C419   1.401       .  A
C418        H423   1.084       .  S
C419        C420   1.411       .  A
C420        N421   1.438       .  S
N421        H425   1.046       .  S
N421        H426   1.045       .  S
N424        H427   1.045       .  S
N424        H428   1.043       .  S
C429        C430   1.401       .  A
C429        C434   1.404       .  A
C429        H436   1.084       .  S
C430        C431   1.415       .  A
C431        C432   1.398       .  A
C431        N438   1.438       .  S
C432        C433   1.404       .  A
C432        H437   1.083       .  S
C433        C434   1.414       .  A
C434        N435   1.438       .  S
N435        H439   1.045       .  S
N435        H440   1.046       .  S
N438        H441   1.043       .  S
N438        H442   1.045       .  S
C443        C444   1.403       .  A
C443        C448   1.401       .  A
C443        H450   1.084       .  S
C445        C446   1.406       .  A
C445        N452   1.438       .  S
C446        H451   1.083       .  S
C447        C448   1.411       .  A
C448        N449   1.432       .  S
N449        H453   1.046       .  S
N449        H454   1.045       .  S
N452        H455   1.045       .  S
N452        H456   1.046       .  S
C457        C462   1.401       .  A
C457        H464   1.081       .  S
C458        C459   1.422       .  A
C459        C460   1.406       .  A
C459        N466   1.438       .  S
C460        C461   1.401       .  A
C460        H465   1.084       .  S
C462        N463   1.439       .  S
N463        H467   1.045       .  S
N463        H468   1.043       .  S
N466        H469   1.046       .  S
N466        H470   1.046       .  S
C471        C472   1.403       .  A
C471        C476   1.405       .  A
C471        H478   1.083       .  S
C472        C473   1.415       .  A
C473        C474   1.405       .  A
C473        N480   1.438       .  S
C474        C475   1.401       .  A
C474        H479   1.084       .  S
C475        C476   1.410       .  A
C476        N477   1.438       .  S
N477        H481   1.045       .  S
N477        H482   1.046       .  S
N480        H483   1.045       .  S
N480        H484   1.046       .  S
C485        C486   1.401       .  A
C485        C490   1.400       .  A
C485        H492   1.084       .  S
C486        C487   1.411       .  A
C487        C488   1.402       .  A
C487        N494   1.439       .  S
C488        C489   1.405       .  A
C488        H493   1.084       .  S
C489        C490   1.419       .  A
C490        N491   1.431       .  S
N491        H495   1.042       .  S
N491        H496   1.046       .  S
N494        H497   1.046       .  S
N494        H498   1.046       .  S
C499        C504   1.402       .  A
C499        H506   1.084       .  S
C500        C501   1.417       .  A
C501        C502   1.400       .  A
C501        N508   1.438       .  S
C502        C503   1.405       .  A
C502        H507   1.084       .  S
C504        N505   1.440       .  S
N505        H509   1.046       .  S
N505        H510   1.042       .  S
N508        H511   1.043       .  S
N508        H512   1.045       .  S
C513        C514   1.403       .  A
C513        C518   1.401       .  A
C513        H520   1.084       .  S
C514        C515   1.413       .  A
C515        C516   1.404       .  A
C515        N522   1.438       .  S
C516        C517   1.401       .  A
C516        H521   1.084       .  S
C517        C518   1.417       .  A
C518        N519   1.438       .  S
N519        H523   1.045       .  S
N519        H524   1.043       .  S
N522        H525   1.046       .  S
N522        H526   1.045       .  S
C527        C528   1.402       .  A
C527        C532   1.398       .  A
C527        H534   1.084       .  S
C528        C529   1.412       .  A
C529        C530   1.406       .  A
C529        N536   1.438       .  S
C530        C531   1.403       .  A
C530        H535   1.084       .  S
C531        C532   1.415       .  A
C532        N533   1.432       .  S
N533        H537   1.043       .  S
N533        H538   1.045       .  S
N536        H539   1.046       .  S
N536        H540   1.046       .  S
C541        C542   1.408       .  A
C541        C546   1.402       .  A
C541        H548   1.084       .  S
C543        C544   1.401       .  A
C543        N550   1.440       .  S
C544        H549   1.084       .  S
C545        C546   1.417       .  A
C546        N547   1.438       .  S
N547        H551   1.045       .  S
N547        H552   1.043       .  S
N550        H553   1.042       .  S
N550        H554   1.046       .  S
C555        C556   1.403       .  A
C555        C560   1.396       .  A
C555        H562   1.084       .  S
C556        C557   1.410       .  A
C557        C558   1.406       .  A
C557        N564   1.438       .  S
C558        C559   1.406       .  A
C558        H563   1.084       .  S
C559        C560   1.417       .  A
C560        N561   1.432       .  S
N561        H565   1.043       .  S
N561        H566   1.045       .  S
N564        H567   1.046       .  S
N564        H568   1.046       .  S
C569        C570   1.406       .  A
C569        C574   1.401       .  A
C569        H576   1.083       .  S
C570        C571   1.414       .  A
C571        C572   1.404       .  A
C571        N578   1.438       .  S
C572        C573   1.401       .  A
C572        H577   1.084       .  S
C573        C574   1.413       .  A
C574        N575   1.439       .  S
N575        H579   1.046       .  S
N575        H580   1.043       .  S
N578        H581   1.046       .  S
N578        H582   1.046       .  S
