geometry optimzed in LAMMPS
_audit_creation_date              2020-11-30 
_audit_creation_method            'lammps2cif' 
_symmetry_space_group_name_H-M    'P1' 
_symmetry_Int_Tables_number       1 
_symmetry_cell_setting            triclinic 
loop_ 
_symmetry_equiv_pos_as_xyz 
  x,y,z 
_cell_length_a                    65.78541459 
_cell_length_b                    66.57022317504376 
_cell_length_c                    34.87440971700576 
_cell_angle_alpha                 88.5828721924697 
_cell_angle_beta                  79.87806589175301 
_cell_angle_gamma                 123.45795973861075 
loop_ 
_atom_site_label 
_atom_site_type_symbol 
_atom_site_fract_x 
_atom_site_fract_y 
_atom_site_fract_z 
_atom_site_charge 
N1          N  0.51253202  0.93658707  0.35986944    -0.02200
C2          C  0.50166139  0.91233118  0.36873090     0.00400
C3          C  0.49847834  0.90169604  0.33472222    -0.22500
C4          C  0.50760807  0.91997144  0.30406573    -0.22700
C5          C  0.51613041  0.94125429  0.32030329     0.00300
H6          H  0.49050212  0.88268780  0.33236550     0.14100
H7          H  0.50714235  0.91764292  0.27357878     0.14100
N8          N  0.12462738  0.47327359  0.01631056    -0.02200
C9          C  0.14612071  0.47455269  0.01435469     0.00400
C10         C  0.15185602  0.46670127  0.98058259    -0.22500
C11         C  0.12929600  0.45835656  0.47010573    -0.22700
C12         C  0.11725851  0.46548155  0.98240080     0.00300
H13         H  0.16238422  0.46236815  0.48442380     0.14100
H14         H  0.13000346  0.45283873  0.44127781     0.14100
N15         N  0.34907106  0.62575138  0.08363151    -0.26000
N16         N  0.34470190  0.64246031  0.09230848    -0.33800
C17         C  0.32015421  0.63270801  0.09687541     0.02300
C18         C  0.30836205  0.60871905  0.09086178     0.08400
C19         C  0.32725879  0.60484106  0.08253838    -0.04700
H20         H  0.31166705  0.64271630  0.10236597     0.09000
H21         H  0.32556742  0.58848823  0.07445659     0.10200
Cu22       Cu  0.37212418  0.67874590  0.09234861     0.44200
Cu23       Cu  0.38487519  0.63302263  0.06983713     0.42000
Cu24       Cu  0.43532628  0.69716724  0.06290000     0.43900
N25         N  0.40203085  0.71491513  0.07997091    -0.33400
N26         N  0.42547643  0.72181061  0.06844689    -0.27600
C27         C  0.44013731  0.74599074  0.05636171    -0.03700
C28         C  0.42508530  0.75470020  0.06044542     0.08500
C29         C  0.40110201  0.73449264  0.07569694     0.02300
H30         H  0.45989227  0.75599311  0.04284880     0.09900
H31         H  0.38398767  0.73375020  0.08016758     0.09000
N32         N  0.44085126  0.66980433  0.05250783    -0.34800
N33         N  0.42277926  0.64655220  0.05448416    -0.27000
C34         C  0.43314242  0.63433537  0.04296965    -0.02200
C35         C  0.45895493  0.65077458  0.03330587     0.06400
C36         C  0.46305342  0.67297133  0.03981390     0.04500
H37         H  0.42258732  0.61513266  0.04058731     0.09600
H38         H  0.48092766  0.69041036  0.03424071     0.08400
N39         N  0.55927147  0.57356334  0.35870922    -0.02200
C40         C  0.55429504  0.59051225  0.36594591     0.00400
C41         C  0.55851246  0.60374327  0.33069156    -0.22500
C42         C  0.56609356  0.59444645  0.30107469    -0.22700
C43         C  0.56615687  0.57570799  0.31908480     0.00300
H44         H  0.55540952  0.61793466  0.32658783     0.14100
H45         H  0.57099815  0.60081516  0.26989602     0.14100
N46         N  0.53837241  0.06091470  0.09674408    -0.02200
C47         C  0.54130677  0.08252233  0.10144568     0.00400
C48         C  0.53174826  0.08811504  0.07374907    -0.22500
C49         C  0.52307469  0.06962763  0.05119376    -0.22700
C50         C  0.52766486  0.05324010  0.06551266     0.00300
H51         H  0.53219066  0.10447084  0.06880339     0.14100
H52         H  0.51474991  0.06868300  0.02659197     0.14100
N53         N  0.61536819  0.50003634  0.09357825    -0.02200
C54         C  0.63087253  0.49272869  0.09496905     0.00400
C55         C  0.64246882  0.49372072  0.05709635    -0.22500
C56         C  0.63381868  0.50183750  0.03180615    -0.22700
C57         C  0.61702548  0.50548479  0.05491033     0.00300
H58         H  0.65527258  0.48838404  0.04856722     0.14100
H59         H  0.63960568  0.50498184  0.00003065     0.14100
N60         N  0.76133179  0.35885158  0.20921679    -0.26000
N61         N  0.75325651  0.33576282  0.20860585    -0.33800
C62         C  0.77220591  0.33341433  0.20951759     0.02300
C63         C  0.79329514  0.35603785  0.21053990     0.08400
C64         C  0.78572917  0.37180544  0.21033134    -0.04700
H65         H  0.77063441  0.31634808  0.21006656     0.09000
H66         H  0.79682608  0.39108396  0.21207832     0.10200
Cu67       Cu  0.71675299  0.30804446  0.20729779     0.44200
Cu68       Cu  0.73826147  0.37125449  0.21066483     0.42000
Cu69       Cu  0.67380772  0.32563859  0.20723631     0.43900
N70         N  0.67984440  0.28388861  0.20321012    -0.33400
N71         N  0.66429586  0.29053489  0.20267842    -0.27600
C72         C  0.64231167  0.27129498  0.19804524    -0.03700
C73         C  0.64396307  0.25151107  0.19568722     0.08500
C74         C  0.66808303  0.26015757  0.19910349     0.02300
H75         H  0.62634096  0.27174737  0.19602716     0.09900
H76         H  0.67670831  0.25020869  0.19783657     0.09000
N77         N  0.68764818  0.36191026  0.21129224    -0.34800
N78         N  0.71109665  0.37851207  0.21255964    -0.27000
C79         C  0.71426139  0.40025533  0.21329374    -0.02200
C80         C  0.69181646  0.39728025  0.21235905     0.06400
C81         C  0.67531843  0.37267013  0.21111600     0.04500
H82         H  0.73188801  0.41719808  0.21305163     0.09600
H83         H  0.65604835  0.36332302  0.20879587     0.08400
N84         N  0.99300264  0.44488351  0.26715119    -0.02200
C85         C  0.96885517  0.43794596  0.27412958     0.00400
C86         C  0.96186688  0.44239820  0.31089931    -0.22500
C87         C  0.98208175  0.45188183  0.32763118    -0.22700
C88         C  0.00099476  0.45295714  0.30062196     0.00300
H89         H  0.94374985  0.43857747  0.32453947     0.14100
H90         H  0.98208322  0.45576037  0.35756512     0.14100
C91         C  0.90649037  0.40076869  0.24263493     0.20000
C92         C  0.88407074  0.37790750  0.25694939    -0.18100
C93         C  0.86209376  0.37162604  0.24584270    -0.10400
C94         C  0.86199503  0.38821007  0.22017330     0.22200
C95         C  0.88464711  0.41075938  0.20469926    -0.19700
C96         C  0.90674953  0.41695530  0.21554728    -0.10600
C97         C  0.83829388  0.38344232  0.21210435    -0.14700
C98         C  0.81757766  0.36088101  0.21472127    -0.28600
C99         C  0.92750580  0.40864227  0.26223110    -0.02800
C100        C  0.95156320  0.42698348  0.24722503    -0.39400
H101        H  0.88327229  0.36527815  0.27837468     0.13400
H102        H  0.84500570  0.35434563  0.25930792     0.13000
H103        H  0.88506956  0.42395472  0.18515967     0.12500
H104        H  0.92353468  0.43496366  0.20471425     0.12700
H105        H  0.83791592  0.39906824  0.20398560     0.15400
H106        H  0.81819585  0.34513424  0.22016339     0.14200
H107        H  0.92245945  0.39994551  0.29234885     0.11900
H108        H  0.95802895  0.43504564  0.21648768     0.13900
C109        C  0.66328935  0.43318988  0.19260521     0.20000
C110        C  0.63907166  0.42740192  0.19429863    -0.18100
C111        C  0.63550244  0.44422234  0.17730660    -0.10400
C112        C  0.65620805  0.46724323  0.15812406     0.22200
C113        C  0.68031519  0.47355034  0.15864807    -0.19700
C114        C  0.68388683  0.45681469  0.17557443    -0.10600
C115        C  0.65397467  0.48329017  0.13131848    -0.14700
C116        C  0.63273650  0.48171452  0.13059974    -0.28600
C117        C  0.66627125  0.41339264  0.20436456    -0.02800
C118        C  0.68813006  0.41718769  0.20820813    -0.39400
H119        H  0.62284278  0.40935678  0.20708729     0.13400
H120        H  0.61663037  0.43848854  0.17698049     0.13000
H121        H  0.69659891  0.49107587  0.14380508     0.12500
H122        H  0.70291420  0.46219114  0.17282334     0.12700
H123        H  0.67052942  0.49587360  0.10837992     0.15400
H124        H  0.61622062  0.47090887  0.15434431     0.14200
H125        H  0.64997623  0.39480795  0.20786356     0.11900
H126        H  0.70442487  0.43549055  0.20666989     0.13900
C127        C  0.57202124  0.13936153  0.15428351     0.20000
C128        C  0.56489590  0.15467611  0.16837457    -0.18100
C129        C  0.58185575  0.17654661  0.18063778    -0.10400
C130        C  0.60666067  0.18390048  0.17854246     0.22200
C131        C  0.61344452  0.16801003  0.16628555    -0.19700
C132        C  0.59640585  0.14603274  0.15411651    -0.10600
C133        C  0.62607026  0.20805301  0.18796729    -0.14700
C134        C  0.62403136  0.22712890  0.18879915    -0.28600
C135        C  0.55440169  0.11830893  0.13610625    -0.02800
C136        C  0.55654973  0.09988745  0.12695526    -0.39400
H137        H  0.54621099  0.14996518  0.16906282     0.13400
H138        H  0.57535525  0.18759300  0.19134651     0.13000
H139        H  0.63231226  0.17302835  0.16474226     0.12500
H140        H  0.60283469  0.13499080  0.14301690     0.12700
H141        H  0.64319513  0.21053051  0.19242893     0.15400
H142        H  0.60749348  0.22538465  0.18315696     0.14200
H143        H  0.53922820  0.11857150  0.12846285     0.11900
H144        H  0.57035287  0.09807212  0.13649474     0.13900
C145        C  0.59598563  0.52981121  0.48014008     0.20000
C146        C  0.58780603  0.52180360  0.44560500    -0.18100
C147        C  0.57877493  0.53251376  0.42541393    -0.10400
C148        C  0.57761851  0.55160130  0.43939570     0.22200
C149        C  0.58549614  0.55943245  0.47426245    -0.19700
C150        C  0.59455124  0.54866197  0.49454473    -0.10600
C151        C  0.57099816  0.56542440  0.41626190    -0.14700
C152        C  0.55909990  0.55721895  0.38674426    -0.28600
C153        C  0.60765332  0.51924892  0.49793403    -0.02800
C154        C  0.60423459  0.51565629  0.03949840    -0.39400
H155        H  0.58900668  0.50755187  0.43354011     0.13400
H156        H  0.57384914  0.52638448  0.39801500     0.13000
H157        H  0.58523501  0.57437423  0.48532235     0.12500
H158        H  0.58846212  0.54681956  0.02851566     0.12700
H159        H  0.57789720  0.58389413  0.42173331     0.15400
H160        H  0.55208922  0.53894140  0.38035685     0.14200
H161        H  0.61280582  0.50904358  0.47973265     0.11900
H162        H  0.59682006  0.52351845  0.05935026     0.13900
C163        C  0.59843730  0.52287513  0.18464843     0.20000
C164        C  0.60628691  0.52889585  0.22007288    -0.18100
C165        C  0.59743388  0.53963380  0.24583174    -0.10400
C166        C  0.58060113  0.54469172  0.23640089     0.22200
C167        C  0.57255292  0.53839101  0.20127777    -0.19700
C168        C  0.58132282  0.52766480  0.17567170    -0.10600
C169        C  0.57254688  0.55831209  0.26020810    -0.14700
C170        C  0.57355624  0.56074548  0.29814209    -0.28600
C171        C  0.61034725  0.51408210  0.15597355    -0.02800
C172        C  0.60066676  0.50290648  0.12588281    -0.39400
H173        H  0.61977978  0.52580522  0.22739335     0.13400
H174        H  0.60459115  0.54476678  0.27212128     0.13000
H175        H  0.55986797  0.54237806  0.19303883     0.12500
H176        H  0.57542717  0.52427027  0.14815702     0.14100
H177        H  0.56493850  0.56646117  0.24560490     0.15400
H178        H  0.57929256  0.55131301  0.31435455     0.14200
H179        H  0.62859396  0.51844811  0.15816310     0.11900
H180        H  0.58251152  0.49839524  0.12303836     0.13900
C181        C  0.49236349  0.62137739  0.49109214     0.20000
C182        C  0.48620594  0.59783896  0.48670099    -0.18100
C183        C  0.50332028  0.59442430  0.46306119    -0.10400
C184        C  0.52705387  0.61462319  0.44333791     0.22200
C185        C  0.53372899  0.63800255  0.44967979    -0.19700
C186        C  0.51671684  0.64142895  0.47314362    -0.10600
C187        C  0.54371255  0.61267296  0.41125843    -0.14700
C188        C  0.54195737  0.59201172  0.40462443    -0.28600
C189        C  0.47415019  0.62563833  0.00724009    -0.02800
C190        C  0.47638700  0.64578662  0.51853708    -0.39400
H191        H  0.46752162  0.58348718  0.98891599     0.13400
H192        H  0.49727815  0.57610028  0.45847117     0.13000
H193        H  0.55183851  0.65388473  0.43467684     0.12500
H194        H  0.52262291  0.65997141  0.47498919     0.12700
H195        H  0.55718434  0.62905216  0.39015420     0.15400
H196        H  0.53020660  0.57569306  0.42626270     0.14200
H197        H  0.45501393  0.60965900  0.01518827     0.11900
H198        H  0.49521533  0.66199985  0.51348229     0.13900
C199        C  0.04782322  0.46565935  0.36486413     0.20000
C200        C  0.05708524  0.48094926  0.39343938    -0.18100
C201        C  0.07007060  0.47780786  0.41814591    -0.10400
C202        C  0.07388052  0.45905058  0.41502589     0.22200
C203        C  0.06499457  0.44405048  0.38600301    -0.19700
C204        C  0.05203084  0.44718736  0.36133438    -0.10600
C205        C  0.08832920  0.45529078  0.43929724    -0.14700
C206        C  0.09478635  0.46522702  0.47216064    -0.28600
C207        C  0.03138819  0.46774638  0.34302970    -0.02800
C208        C  0.02345876  0.45645971  0.31180495    -0.39400
H209        H  0.05397151  0.49523239  0.39703293     0.13400
H210        H  0.07717135  0.49020647  0.43927075     0.13000
H211        H  0.06785161  0.42958598  0.38264941     0.12500
H212        H  0.04473778  0.43460333  0.34051623     0.12700
H213        H  0.09428217  0.44373649  0.42872648     0.15400
H214        H  0.09032610  0.47565341  0.98216888     0.14200
H215        H  0.02399423  0.47788714  0.35532287     0.11900
H216        H  0.03169987  0.44766702  0.29686042     0.13900
C217        C  0.04480181  0.45907098  0.17750506     0.20000
C218        C  0.06817653  0.48040028  0.15982827    -0.18100
C219        C  0.08186928  0.48144789  0.12323636    -0.10400
C220        C  0.07262323  0.46097650  0.10343473     0.22200
C221        C  0.04927129  0.43963562  0.12112553    -0.19700
C222        C  0.03558775  0.43857941  0.15772679    -0.10600
C223        C  0.08659681  0.46092547  0.06464602    -0.14700
C224        C  0.11143800  0.47686802  0.05027685    -0.28600
C225        C  0.03087169  0.45908534  0.21640227    -0.02800
C226        C  0.00620290  0.44261651  0.23151640    -0.39400
H227        H  0.07579968  0.49649332  0.17421541     0.13400
H228        H  0.09946811  0.49845231  0.11051794     0.13000
H229        H  0.04167601  0.42352792  0.10676911     0.12500
H230        H  0.01802878  0.42154783  0.17043451     0.12700
H231        H  0.07639177  0.44587362  0.04871756     0.15400
H232        H  0.12238585  0.49054176  0.06762316     0.14200
H233        H  0.04103788  0.47426173  0.23211619     0.11900
H234        H  0.99515192  0.42858942  0.21467275     0.13900
C235        C  0.19703131  0.52355878  0.06091577     0.20000
C236        C  0.21042945  0.54899644  0.05244781    -0.18100
C237        C  0.23405501  0.56395563  0.06063095    -0.10400
C238        C  0.24480647  0.55379906  0.07797006     0.22200
C239        C  0.23114349  0.52840122  0.08756725    -0.19700
C240        C  0.20740014  0.51340150  0.07954654    -0.10600
C241        C  0.27078250  0.56911466  0.08386584    -0.14700
C242        C  0.28183230  0.59260183  0.08887426    -0.28600
C243        C  0.17337118  0.50859743  0.04713630    -0.02800
C244        C  0.16348576  0.48542777  0.04094786    -0.39400
H245        H  0.20301724  0.55735764  0.03798386     0.13400
H246        H  0.24419981  0.58338480  0.05178145     0.13000
H247        H  0.23897244  0.52012402  0.10100960     0.12500
H248        H  0.19750825  0.49394960  0.08760517     0.12700
H249        H  0.28103311  0.56075684  0.08408009     0.15400
H250        H  0.27120212  0.60064838  0.09132991     0.14200
H251        H  0.16585618  0.51805040  0.03622780     0.11900
H252        H  0.17220847  0.47629605  0.04745235     0.13900
C253        C  0.54062821  0.02852468  0.18597043     0.20000
C254        C  0.52655263  0.02125534  0.22494874    -0.18100
C255        C  0.52440245  0.00297846  0.24955422    -0.10400
C256        C  0.53657394  0.99171837  0.23576514     0.22200
C257        C  0.55149952  0.99967684  0.19733963    -0.19700
C258        C  0.55374112  0.01804429  0.17276490    -0.10600
C259        C  0.53212293  0.97013492  0.25906409    -0.14700
C260        C  0.52443197  0.96493995  0.29856366    -0.28600
C261        C  0.53989357  0.04599416  0.15978494    -0.02800
C262        C  0.54462867  0.04782066  0.12025358    -0.39400
H263        H  0.51630105  0.02902991  0.23592851     0.13400
H264        H  0.51223592  0.99699802  0.27862294     0.13000
H265        H  0.56110837  0.99133344  0.18604987     0.12500
H266        H  0.56547350  0.02364595  0.14340845     0.12700
H267        H  0.53486975  0.95780702  0.24277646     0.15400
H268        H  0.52343592  0.97796961  0.31538899     0.14200
H269        H  0.53231906  0.05565906  0.17365542     0.11900
H270        H  0.55003876  0.03668315  0.10589113     0.13900
C271        C  0.51760585  0.00879697  0.98944619     0.20000
C272        C  0.52215993  0.01296547  0.44554384    -0.18100
C273        C  0.51892823  0.99439743  0.42410183    -0.10400
C274        C  0.50836035  0.97084446  0.44346858     0.22200
C275        C  0.50057402  0.96620630  0.48471818    -0.19700
C276        C  0.50727052  0.98522306  0.00863421    -0.10600
C277        C  0.50394970  0.95070127  0.42083775    -0.14700
C278        C  0.51903410  0.95467580  0.38587462    -0.28600
C279        C  0.52052022  0.02911405  0.01044417    -0.02800
C280        C  0.52249769  0.03102072  0.04820390    -0.39400
H281        H  0.53026582  0.03088917  0.42974773     0.13400
H282        H  0.52415028  0.99844681  0.39228946     0.13000
H283        H  0.49603418  0.94863455  0.00188179     0.12500
H284        H  0.50094634  0.98085843  0.04035327     0.12700
H285        H  0.48743659  0.93255835  0.43242822     0.15400
H286        H  0.53558303  0.97287447  0.37470666     0.14200
H287        H  0.52293565  0.04420011  0.99265381     0.11900
H288        H  0.52184240  0.01692762  0.06573473     0.13900
C289        C  0.46857871  0.85848152  0.45205903     0.20000
C290        C  0.44364917  0.83867475  0.46555540    -0.18100
C291        C  0.43755322  0.81893185  0.49158753    -0.10400
C292        C  0.45638408  0.81850627  0.50469023     0.22200
C293        C  0.48125795  0.83886063  0.49256224    -0.19700
C294        C  0.48733804  0.85877116  0.46663146    -0.10600
C295        C  0.45113981  0.79604035  0.52641726    -0.14700
C296        C  0.43136300  0.77867711  0.04428947    -0.28600
C297        C  0.47449857  0.87600373  0.41800173    -0.02800
C298        C  0.49526871  0.89875275  0.40804378    -0.39400
H299        H  0.42893203  0.83790117  0.45429374     0.13400
H300        H  0.42205405  0.80273528  0.99231512     0.13000
H301        H  0.49615314  0.83889082  0.50181965     0.12500
H302        H  0.50683038  0.87351987  0.45606251     0.12700
H303        H  0.46659249  0.79402750  0.52396145     0.15400
H304        H  0.41600156  0.78082902  0.04723528     0.14200
H305        H  0.46139418  0.86929557  0.39882351     0.11900
H306        H  0.50787233  0.90698836  0.42773781     0.13900
N307        N  0.51603184  0.93831996  0.85958503    -0.02200
C308        C  0.50544395  0.91402797  0.86733124     0.00400
C309        C  0.50287043  0.90404065  0.83269361    -0.22500
C310        C  0.51198181  0.92265881  0.80280261    -0.22700
C311        C  0.51996438  0.94355036  0.82002128     0.00300
H312        H  0.49526824  0.88520431  0.82940109     0.14100
H313        H  0.51181293  0.92077337  0.77212395     0.14100
N314        N  0.11976025  0.47198437  0.52411990    -0.02200
C315        C  0.14043673  0.47214710  0.52472046     0.00400
C316        C  0.14634878  0.46339843  0.49235627    -0.22500
C317        C  0.13382130  0.46116928  0.96010830    -0.22700
C318        C  0.11310028  0.46387132  0.48994511     0.00300
H319        H  0.16829039  0.46652373  0.97066361     0.14100
H320        H  0.13402387  0.45611449  0.93089630     0.14100
N321        N  0.34615626  0.62398234  0.58240488    -0.26000
N322        N  0.34189476  0.64066779  0.59190341    -0.33800
C323        C  0.31723466  0.63076024  0.59832440     0.02300
C324        C  0.30527633  0.60672452  0.59259956     0.08400
C325        C  0.32416617  0.60294887  0.58260619    -0.04700
H326        H  0.30875429  0.64071101  0.60472373     0.09000
H327        H  0.32231764  0.58658089  0.57420850     0.10200
Cu328      Cu  0.36930412  0.67713836  0.59044853     0.44200
Cu329      Cu  0.38185894  0.63124763  0.56581915     0.42000
Cu330      Cu  0.43189730  0.69571626  0.55504368     0.43900
N331        N  0.39898563  0.71338264  0.57723717    -0.33400
N332        N  0.42226583  0.72030148  0.56342046    -0.27600
C333        C  0.43685265  0.74456802  0.55243104    -0.03700
C334        C  0.42192129  0.75334527  0.55968671     0.08500
C335        C  0.39806972  0.73305366  0.57551699     0.02300
H336        H  0.45644350  0.75465910  0.53783231     0.09900
H337        H  0.38101305  0.73241020  0.58250349     0.09000
N338        N  0.43766633  0.66846916  0.54644711    -0.34800
N339        N  0.41978821  0.64503638  0.54980683    -0.27000
C340        C  0.43044500  0.63277290  0.54108644    -0.02200
C341        C  0.45623425  0.64941461  0.53205743     0.06400
C342        C  0.46001139  0.67173778  0.53574250     0.04500
H343        H  0.42014450  0.61332385  0.54097861     0.09600
H344        H  0.47780484  0.68925805  0.53029642     0.08400
N345        N  0.56370646  0.57623794  0.85371522    -0.02200
C346        C  0.55805899  0.59278168  0.86088778     0.00400
C347        C  0.56344646  0.60679006  0.82577861    -0.22500
C348        C  0.57235134  0.59842587  0.79630724    -0.22700
C349        C  0.57205606  0.57940751  0.81411478     0.00300
H350        H  0.56018317  0.62085832  0.82155069     0.14100
H351        H  0.57824937  0.60554573  0.76529908     0.14100
N352        N  0.53737628  0.05975481  0.59491974    -0.02200
C353        C  0.54022205  0.08115611  0.60089841     0.00400
C354        C  0.53097336  0.08750195  0.57369137    -0.22500
C355        C  0.52255872  0.06963483  0.54995241    -0.22700
C356        C  0.52698926  0.05289244  0.56326050     0.00300
H357        H  0.53145691  0.10395763  0.57000071     0.14100
H358        H  0.51442144  0.06928890  0.52538886     0.14100
N359        N  0.62347673  0.50527817  0.58736882    -0.02200
C360        C  0.63833372  0.49707973  0.58778459     0.00400
C361        C  0.64951203  0.49817705  0.54944407    -0.22500
C362        C  0.64115775  0.50710082  0.52496483    -0.22700
C363        C  0.62496800  0.51110071  0.54894470     0.00300
H364        H  0.66156647  0.49209497  0.53995564     0.14100
H365        H  0.64642446  0.51022488  0.49312446     0.14100
N366        N  0.75650523  0.35334277  0.71697287    -0.26000
N367        N  0.74907523  0.33056273  0.71458893    -0.33800
C368        C  0.76836132  0.32864046  0.71499189     0.02300
C369        C  0.78900855  0.35132003  0.71726254     0.08400
C370        C  0.78078716  0.36655998  0.71855076    -0.04700
H371        H  0.76734401  0.31187353  0.71417917     0.09000
H372        H  0.79135993  0.38564882  0.72171370     0.10200
Cu373      Cu  0.71292438  0.30308481  0.71144923     0.44200
Cu374      Cu  0.73291385  0.36513698  0.71988618     0.42000
Cu375      Cu  0.66881969  0.32023554  0.71569434     0.43900
N376        N  0.67588126  0.27920399  0.70808435    -0.33400
N377        N  0.65987683  0.28546078  0.70967676    -0.27600
C378        C  0.63771318  0.26601454  0.70607199    -0.03700
C379        C  0.63978284  0.24656289  0.70211812     0.08500
C380        C  0.66429227  0.25559444  0.70348028     0.02300
H381        H  0.62131692  0.26609031  0.70597475     0.09900
H382        H  0.67324878  0.24594811  0.70088575     0.09000
N383        N  0.68286747  0.35661146  0.71898657    -0.34800
N384        N  0.70628069  0.37294855  0.72072783    -0.27000
C385        C  0.71011795  0.39501864  0.71943142    -0.02200
C386        C  0.68818034  0.39257431  0.71648567     0.06400
C387        C  0.67121950  0.36789499  0.71638654     0.04500
H388        H  0.72799680  0.41184677  0.71846450     0.09600
H389        H  0.65226651  0.35891348  0.71261199     0.08400
N390        N  0.98948837  0.44706843  0.77332471    -0.02200
C391        C  0.96559457  0.44090283  0.78106557     0.00400
C392        C  0.95936464  0.44556457  0.81811249    -0.22500
C393        C  0.97973279  0.45422904  0.83426417    -0.22700
C394        C  0.99800626  0.45468538  0.80659993     0.00300
H395        H  0.94157385  0.44223834  0.83245581     0.14100
H396        H  0.98018231  0.45793170  0.86423225     0.14100
C397        C  0.90258298  0.40235079  0.75093624     0.20000
C398        C  0.88075909  0.37921720  0.76615788    -0.18100
C399        C  0.85874764  0.37113694  0.75364358    -0.10400
C400        C  0.85800371  0.38620841  0.72573363     0.22200
C401        C  0.88012708  0.40900899  0.70933817    -0.19700
C402        C  0.90229971  0.41698562  0.72157454    -0.10600
C403        C  0.83399939  0.37989014  0.71671013    -0.14700
C404        C  0.81356699  0.35693002  0.72141409    -0.28600
C405        C  0.92352355  0.41198550  0.77121531    -0.02800
C406        C  0.94765947  0.42970042  0.75512170    -0.39400
H407        H  0.88042063  0.36775716  0.78922735     0.13400
H408        H  0.84206451  0.35373974  0.76776806     0.13000
H409        H  0.88001327  0.42106501  0.68806649     0.12500
H410        H  0.91864331  0.43514079  0.70992642     0.12700
H411        H  0.83303367  0.39483026  0.70650528     0.15400
H412        H  0.81463975  0.34164732  0.72868079     0.14200
H413        H  0.91849019  0.40449466  0.80208457     0.11900
H414        H  0.95399615  0.43632120  0.72375715     0.13900
C415        C  0.66362485  0.43039184  0.68631133     0.20000
C416        C  0.64023801  0.42681406  0.68877507    -0.18100
C417        C  0.63841076  0.44451033  0.67010737    -0.10400
C418        C  0.66004483  0.46613452  0.64835935     0.22200
C419        C  0.68340142  0.46999370  0.64704535    -0.19700
C420        C  0.68523345  0.45243020  0.66563956    -0.10600
C421        C  0.65918864  0.48328839  0.62164666    -0.14700
C422        C  0.63937588  0.48461021  0.62262014    -0.28600
C423        C  0.66469940  0.40994933  0.70171297    -0.02800
C424        C  0.68573790  0.41300297  0.70844222    -0.39400
H425        H  0.62325630  0.40991310  0.70406394     0.13400
H426        H  0.62002062  0.44058232  0.67103717     0.13000
H427        H  0.70033699  0.48627577  0.62997587     0.12500
H428        H  0.70358239  0.45580187  0.66171020     0.12700
H429        H  0.67564776  0.49460737  0.59787632     0.15400
H430        H  0.62324875  0.47514439  0.64724625     0.14200
H431        H  0.64780789  0.39168207  0.70601537     0.11900
H432        H  0.70239442  0.43116371  0.70636759     0.13900
C433        C  0.56948997  0.13534665  0.65866108     0.20000
C434        C  0.56135139  0.14861797  0.67855166    -0.18100
C435        C  0.57827502  0.17039356  0.69108456    -0.10400
C436        C  0.60387231  0.17954204  0.68346628     0.22200
C437        C  0.61176305  0.16559115  0.66550367    -0.19700
C438        C  0.59483405  0.14379231  0.65301357    -0.10600
C439        C  0.62301070  0.20372284  0.69271560    -0.14700
C440        C  0.61982782  0.22197599  0.69619990    -0.28600
C441        C  0.55183976  0.11478951  0.63994189    -0.02800
C442        C  0.55524095  0.09771767  0.62718731    -0.39400
H443        H  0.54191692  0.14245703  0.68344371     0.13400
H444        H  0.57121448  0.18006662  0.70621605     0.13000
H445        H  0.63132416  0.17210389  0.65957668     0.12500
H446        H  0.60200812  0.13440208  0.63718515     0.12700
H447        H  0.64095619  0.20705611  0.69413698     0.15400
H448        H  0.60241070  0.21935273  0.69327448     0.14200
H449        H  0.53581928  0.11439682  0.63473296     0.11900
H450        H  0.56988268  0.09642947  0.63449193     0.13900
C451        C  0.59198946  0.52700216  0.98200843     0.20000
C452        C  0.58949814  0.52306593  0.94325278    -0.18100
C453        C  0.58208446  0.53486405  0.92163998    -0.10400
C454        C  0.57671719  0.55090891  0.93832480     0.22200
C455        C  0.57896588  0.55476243  0.97724991    -0.19700
C456        C  0.58642864  0.54288777  0.99901919    -0.10600
C457        C  0.57132093  0.56562189  0.91450516    -0.14700
C458        C  0.56248756  0.55908977  0.88169025    -0.28600
C459        C  0.60214162  0.51537740  0.00169946    -0.02800
C460        C  0.61183802  0.52111375  0.53454532    -0.39400
H461        H  0.59397114  0.51123964  0.92910585     0.13400
H462        H  0.58167755  0.53206008  0.89130384     0.13000
H463        H  0.57536884  0.56734247  0.99060258     0.12500
H464        H  0.60123045  0.55581099  0.52048564     0.12700
H465        H  0.57645952  0.58319982  0.92269986     0.15400
H466        H  0.55718020  0.54155682  0.87323727     0.14200
H467        H  0.60853640  0.50610769  0.98338519     0.11900
H468        H  0.60530780  0.52965770  0.55444291     0.13900
C469        C  0.60706857  0.52845832  0.67845512     0.20000
C470        C  0.61346231  0.53301793  0.71516528    -0.18100
C471        C  0.60454426  0.54380676  0.74079830    -0.10400
C472        C  0.58919180  0.55048452  0.72993266     0.22200
C473        C  0.58282895  0.54589118  0.69327309    -0.19700
C474        C  0.59160334  0.53506201  0.66785588    -0.10600
C475        C  0.58080636  0.56382944  0.75409605    -0.14700
C476        C  0.58018361  0.56496262  0.79281797    -0.28600
C477        C  0.61871453  0.51915497  0.65025156    -0.02800
C478        C  0.60893715  0.50807750  0.62013550    -0.39400
H479        H  0.62574130  0.52857975  0.72374996     0.13400
H480        H  0.61042177  0.54759133  0.76832109     0.13000
H481        H  0.57137123  0.55117128  0.68382398     0.12500
H482        H  0.58701178  0.53290010  0.63929298     0.14100
H483        H  0.57414338  0.57277830  0.73897828     0.15400
H484        H  0.58505258  0.55481161  0.80931539     0.14200
H485        H  0.63672627  0.52301509  0.65277066     0.11900
H486        H  0.59091845  0.50402253  0.61738698     0.13900
C487        C  0.49367852  0.62244353  0.98537968     0.20000
C488        C  0.48658294  0.59904279  0.97760383    -0.18100
C489        C  0.50358997  0.59554000  0.95370814    -0.10400
C490        C  0.52815905  0.61549697  0.93705756     0.22200
C491        C  0.53552464  0.63864103  0.94610931    -0.19700
C492        C  0.51867315  0.64214404  0.96998594    -0.10600
C493        C  0.54548142  0.61385926  0.90575824    -0.14700
C494        C  0.54405846  0.59334829  0.89880986    -0.28600
C495        C  0.47226045  0.62426929  0.51092262    -0.02800
C496        C  0.47871566  0.64720952  0.01581020    -0.39400
H497        H  0.46764765  0.58203907  0.50010004     0.13400
H498        H  0.49705876  0.57749044  0.94673130     0.13000
H499        H  0.55429128  0.65435924  0.93343616     0.12500
H500        H  0.52545037  0.66054473  0.97478167     0.12700
H501        H  0.55967085  0.63060805  0.88587876     0.15400
H502        H  0.53153164  0.57664444  0.91949827     0.14200
H503        H  0.45314459  0.60823469  0.51749410     0.11900
H504        H  0.49753322  0.66348837  0.00894296     0.13900
C505        C  0.04608190  0.46587084  0.86774194     0.20000
C506        C  0.05640484  0.48119870  0.89581771    -0.18100
C507        C  0.07059186  0.47830384  0.91817279    -0.10400
C508        C  0.07458148  0.45975338  0.91318428     0.22200
C509        C  0.06450310  0.44461941  0.88479432    -0.19700
C510        C  0.05032009  0.44750636  0.86246869    -0.10600
C511        C  0.09051339  0.45650609  0.93459796    -0.14700
C512        C  0.09770843  0.46610871  0.96735679    -0.28600
C513        C  0.02888260  0.46802319  0.84804653    -0.02800
C514        C  0.02035655  0.45728292  0.81672101    -0.39400
H515        H  0.05330491  0.49540467  0.90072662     0.13400
H516        H  0.07857063  0.49080196  0.93884862     0.13000
H517        H  0.06744227  0.43029832  0.88006424     0.12500
H518        H  0.04222414  0.43489334  0.84199084     0.12700
H519        H  0.09692538  0.44569047  0.92194570     0.15400
H520        H  0.08782804  0.47557545  0.48496372     0.14200
H521        H  0.02181541  0.47813493  0.86170473     0.11900
H522        H  0.02826046  0.44854498  0.80050444     0.13900
C523        C  0.03998440  0.46130331  0.68141422     0.20000
C524        C  0.06318007  0.48264001  0.66298319    -0.18100
C525        C  0.07668565  0.48337188  0.62639698    -0.10400
C526        C  0.06737964  0.46259816  0.60734357     0.22200
C527        C  0.04403201  0.44139588  0.62545913    -0.19700
C528        C  0.03057597  0.44062861  0.66207416    -0.10600
C529        C  0.08146645  0.46196947  0.56920713    -0.14700
C530        C  0.10655707  0.47679575  0.55629861    -0.28600
C531        C  0.02655922  0.46138812  0.72080916    -0.02800
C532        C  0.00209632  0.44467890  0.73711374    -0.39400
H533        H  0.07090483  0.49890747  0.67693578     0.13400
H534        H  0.09427348  0.50027512  0.61315242     0.13000
H535        H  0.03637438  0.42508921  0.61160485     0.12500
H536        H  0.01311605  0.42362506  0.67524767     0.12700
H537        H  0.07109755  0.44703070  0.55318037     0.15400
H538        H  0.11741674  0.49016837  0.57415637     0.14200
H539        H  0.03694482  0.47670887  0.73614578     0.11900
H540        H  0.99070300  0.43043042  0.72087509     0.13900
C541        C  0.19255750  0.52171814  0.56803302     0.20000
C542        C  0.20605861  0.54715038  0.55912542    -0.18100
C543        C  0.23012479  0.56209071  0.56569509    -0.10400
C544        C  0.24125864  0.55192063  0.58170922     0.22200
C545        C  0.22761546  0.52656425  0.59158294    -0.19700
C546        C  0.20341046  0.51158482  0.58531496    -0.10600
C547        C  0.26753195  0.56720983  0.58609222    -0.14700
C548        C  0.27853226  0.59051544  0.59209243    -0.28600
C549        C  0.16844792  0.50678527  0.55544144    -0.02800
C550        C  0.15726132  0.48307403  0.55200483    -0.39400
H551        H  0.19833997  0.55551449  0.54558707     0.13400
H552        H  0.24028292  0.58151110  0.55667282     0.13000
H553        H  0.23578743  0.51830486  0.60396731     0.12500
H554        H  0.19364076  0.49218097  0.59358742     0.12700
H555        H  0.27798772  0.55898453  0.58444678     0.15400
H556        H  0.26770244  0.59834998  0.59630029     0.14200
H557        H  0.16168104  0.51650483  0.54282326     0.11900
H558        H  0.16480830  0.47323269  0.56078270     0.13900
C559        C  0.54073871  0.02795014  0.68401936     0.20000
C560        C  0.52861178  0.02234626  0.72396838    -0.18100
C561        C  0.52782869  0.00524804  0.74938711    -0.10400
C562        C  0.53945372  0.99352400  0.73536796     0.22200
C563        C  0.55252322  0.99992467  0.69584615    -0.19700
C564        C  0.55335040  0.01706173  0.67044858    -0.10600
C565        C  0.53609286  0.97274489  0.75941851    -0.14700
C566        C  0.52797188  0.96729027  0.79888157    -0.28600
C567        C  0.53884941  0.04446723  0.65764704    -0.02800
C568        C  0.54328521  0.04617816  0.61809616    -0.39400
H569        H  0.51886125  0.03054958  0.73528322     0.13400
H570        H  0.51712905  0.00056345  0.77935313     0.13000
H571        H  0.56167279  0.99120176  0.68430378     0.12500
H572        H  0.56362236  0.02137545  0.64027576     0.12700
H573        H  0.53963488  0.96079685  0.74340964     0.15400
H574        H  0.52603487  0.97977507  0.81591023     0.14200
H575        H  0.53121383  0.05403928  0.67166058     0.11900
H576        H  0.54881128  0.03521625  0.60340818     0.13900
C577        C  0.51508177  0.00859692  0.48679485     0.20000
C578        C  0.52473302  0.01334788  0.94819048    -0.18100
C579        C  0.52201677  0.99507115  0.92640459    -0.10400
C580        C  0.51197865  0.97155366  0.94531261     0.22200
C581        C  0.50432262  0.96673040  0.98664111    -0.19700
C582        C  0.50406378  0.98494935  0.50631786    -0.10600
C583        C  0.50779236  0.95162582  0.92205847    -0.14700
C584        C  0.52244534  0.95606823  0.88629488    -0.28600
C585        C  0.51875102  0.02910078  0.50776425    -0.02800
C586        C  0.52160098  0.03093007  0.54510596    -0.39400
H587        H  0.53237502  0.03119519  0.93258935     0.13400
H588        H  0.52712179  0.99932442  0.89461853     0.13000
H589        H  0.49185780  0.94807607  0.50022059     0.12500
H590        H  0.49766760  0.98074730  0.53803307     0.12700
H591        H  0.49165655  0.93330621  0.93377287     0.15400
H592        H  0.53865347  0.97444814  0.87513523     0.14200
H593        H  0.52089550  0.04419093  0.49044471     0.11900
H594        H  0.52128707  0.01678142  0.56180759     0.13900
C595        C  0.47214324  0.85853382  0.94755078     0.20000
C596        C  0.44736063  0.83819101  0.95940376    -0.18100
C597        C  0.44117830  0.81852866  0.98573997    -0.10400
C598        C  0.45977888  0.81871598  0.00077031     0.22200
C599        C  0.48452847  0.83936960  0.98964243    -0.19700
C600        C  0.49068553  0.85920146  0.96343414    -0.10600
C601        C  0.45444588  0.79669765  0.02419988    -0.14700
C602        C  0.42812571  0.77769998  0.54621011    -0.28600
C603        C  0.47833485  0.87657625  0.91417264    -0.02800
C604        C  0.49860929  0.89968892  0.90608063    -0.39400
H605        H  0.43284986  0.83707533  0.94695421     0.13400
H606        H  0.41826165  0.80346300  0.49910221     0.13000
H607        H  0.49927122  0.83981878  0.00026302     0.12500
H608        H  0.51010224  0.87432308  0.95397758     0.12700
H609        H  0.46991486  0.79484845  0.02325790     0.15400
H610        H  0.41276287  0.77989842  0.55083365     0.14200
H611        H  0.46581086  0.87005931  0.89405564     0.11900
H612        H  0.51053220  0.90764142  0.92679296     0.13900
loop_ 
_geom_bond_atom_site_label_1 
_geom_bond_atom_site_label_2 
_geom_bond_distance 
_geom_bond_site_symmetry_2 
_ccdc_geom_bond_type 
N1            C5   1.356       .  A
N1            C2   1.356       .  A
N1          C278   1.441       .  S
C2            C3   1.385       .  A
C2          C298   1.480       .  S
C3            C4   1.374       .  A
C3            H6   1.082       .  S
C4            C5   1.385       .  A
C4            H7   1.082       .  S
C5          C260   1.485       .  S
N8           C12   1.363   1_554  A
N8            C9   1.358       .  A
N8          C224   1.447       .  S
C9           C10   1.376   1_554  A
C9          C244   1.477       .  S
C10         C317   1.372       .  A
C10         H319   1.082       .  S
C11         C316   1.370       .  A
C11         C318   1.390       .  A
C11          H14   1.081       .  S
C12         C317   1.390       .  A
C12         C512   1.492       .  S
H13         C316   1.083       .  S
N15          C19   1.348       .  A
N15          N16   1.323       .  A
N15         Cu23   2.085       .  S
N16          C17   1.343       .  A
N16         Cu22   2.070       .  S
C17          C18   1.380       .  A
C17          H20   1.082       .  S
C18          C19   1.388       .  A
C18         C242   1.478       .  S
C19          H21   1.081       .  S
Cu22         N25   2.069       .  S
Cu23         N33   2.085       .  S
Cu24         N26   2.072       .  S
Cu24         N32   2.073       .  S
N25          C29   1.344       .  A
N25          N26   1.320       .  A
N26          C27   1.346       .  A
C27          C28   1.387       .  A
C27          H30   1.081       .  S
C28          C29   1.382       .  A
C28         C296   1.477       .  S
C29          H31   1.082       .  S
N32          C36   1.342       .  A
N32          N33   1.323       .  A
N33          C34   1.349       .  A
C34          C35   1.388       .  A
C34          H37   1.082       .  S
C35          C36   1.381       .  A
C35         C496   1.479       .  S
C36          H38   1.082       .  S
N39          C43   1.354       .  A
N39          C40   1.355       .  A
N39         C152   1.439       .  S
C40          C41   1.386       .  A
C40         C188   1.483       .  S
C41          C42   1.375       .  A
C41          H44   1.082       .  S
C42          C43   1.385       .  A
C42          H45   1.081       .  S
C43         C170   1.486       .  S
N46          C50   1.358       .  A
N46          C47   1.360       .  A
N46         C262   1.442       .  S
C47          C48   1.386       .  A
C47         C136   1.490       .  S
C48          C49   1.375       .  A
C48          H51   1.082       .  S
C49          C50   1.386       .  A
C49          H52   1.082       .  S
C50         C280   1.493       .  S
N53          C57   1.357       .  A
N53          C54   1.357       .  A
N53         C172   1.440       .  S
C54          C55   1.384       .  A
C54         C116   1.485       .  S
C55          C56   1.373       .  A
C55          H58   1.082       .  S
C56          C57   1.386       .  A
C56          H59   1.081       .  S
C57         C154   1.492       .  S
N60          C64   1.349       .  A
N60          N61   1.323       .  A
N60         Cu68   2.084       .  S
N61          C62   1.345       .  A
N61         Cu67   2.081       .  S
C62          C63   1.382       .  A
C62          H65   1.082       .  S
C63          C64   1.388       .  A
C63          C98   1.481       .  S
C64          H66   1.082       .  S
Cu67         N70   2.081       .  S
Cu68         N78   2.084       .  S
Cu69         N71   2.078       .  S
Cu69         N77   2.078       .  S
N70          C74   1.348       .  A
N70          N71   1.322       .  A
N71          C72   1.345       .  A
C72          C73   1.383       .  A
C72          H75   1.082       .  S
C73          C74   1.388       .  A
C73         C134   1.481       .  S
C74          H76   1.081       .  S
N77          C81   1.347       .  A
N77          N78   1.323       .  A
N78          C79   1.346       .  A
C79          C80   1.384       .  A
C79          H82   1.082       .  S
C80          C81   1.387       .  A
C80         C118   1.481       .  S
C81          H83   1.081       .  S
N84          C88   1.365   1_655  A
N84          C85   1.359       .  A
N84         C226   1.448   1_655  S
C85          C86   1.380       .  A
C85         C100   1.483       .  S
C86          C87   1.368       .  A
C86          H89   1.083       .  S
C87          C88   1.388   1_655  A
C87          H90   1.082       .  S
C88         C208   1.489       .  S
C91          C92   1.403       .  A
C91          C96   1.406       .  A
C91          C99   1.485       .  S
C92          C93   1.398       .  A
C92         H101   1.084       .  S
C93          C94   1.408       .  A
C93         H102   1.081       .  S
C94          C95   1.406       .  A
C94          C97   1.491       .  S
C95          C96   1.403       .  A
C95         H103   1.083       .  S
C96         H104   1.082       .  S
C97         H105   1.086       .  S
C97          C98   1.347       .  D
C98         H106   1.085       .  S
C99         H107   1.088       .  S
C99         C100   1.348       .  D
C100        H108   1.085       .  S
C109        C110   1.407       .  A
C109        C114   1.408       .  A
C109        C117   1.493       .  S
C110        C111   1.402       .  A
C110        H119   1.083       .  S
C111        C112   1.407       .  A
C111        H120   1.082       .  S
C112        C113   1.403       .  A
C112        C115   1.486       .  S
C113        C114   1.396       .  A
C113        H121   1.083       .  S
C114        H122   1.080       .  S
C115        H123   1.087       .  S
C115        C116   1.347       .  D
C116        H124   1.085       .  S
C117        H125   1.086       .  S
C117        C118   1.349       .  D
C118        H126   1.083       .  S
C127        C128   1.404       .  A
C127        C132   1.408       .  A
C127        C135   1.490       .  S
C128        C129   1.398       .  A
C128        H137   1.084       .  S
C129        C130   1.408       .  A
C129        H138   1.080       .  S
C130        C131   1.406       .  A
C130        C133   1.494       .  S
C131        C132   1.402       .  A
C131        H139   1.083       .  S
C132        H140   1.081       .  S
C133        H141   1.086       .  S
C133        C134   1.349       .  D
C134        H142   1.083       .  S
C135        H143   1.086       .  S
C135        C136   1.349       .  D
C136        H144   1.084       .  S
C145        C146   1.403       .  A
C145        C150   1.408       .  A
C145        C153   1.486       .  S
C146        C147   1.395       .  A
C146        H155   1.084       .  S
C147        C148   1.408       .  A
C147        H156   1.080       .  S
C148        C149   1.405       .  A
C148        C151   1.489       .  S
C149        C150   1.401       .  A
C149        H157   1.083       .  S
C150        H464   1.081       .  S
C151        H159   1.087       .  S
C151        C152   1.345       .  D
C152        H160   1.083       .  S
C153        H161   1.086       .  S
C153        C460   1.347       .  D
C154        H162   1.083       .  S
C154        C459   1.349       .  D
H158        C456   1.081   1_554  S
C163        C164   1.405       .  A
C163        C168   1.408       .  A
C163        C171   1.489       .  S
C164        C165   1.401       .  A
C164        H173   1.083       .  S
C165        C166   1.408       .  A
C165        H174   1.081       .  S
C166        C167   1.402       .  A
C166        C169   1.485       .  S
C167        C168   1.395       .  A
C167        H175   1.084       .  S
C168        H176   1.080       .  S
C169        H177   1.086       .  S
C169        C170   1.346       .  D
C170        H178   1.084       .  S
C171        H179   1.086       .  S
C171        C172   1.346       .  D
C172        H180   1.084       .  S
C181        C182   1.406       .  A
C181        C186   1.410       .  A
C181        C495   1.493       .  S
C182        C183   1.401       .  A
C182        H497   1.084       .  S
C183        C184   1.407       .  A
C183        H192   1.081       .  S
C184        C185   1.401       .  A
C184        C187   1.484       .  S
C185        C186   1.394       .  A
C185        H193   1.084       .  S
C186        H194   1.078       .  S
C187        H195   1.087       .  S
C187        C188   1.345       .  D
C188        H196   1.084       .  S
C189        C487   1.497   1_554  S
C189        H197   1.086       .  S
C189        C496   1.349       .  D
C190        C341   1.476       .  S
C190        H198   1.082       .  S
C190        C495   1.346       .  D
H191        C488   1.084       .  S
C199        C200   1.407       .  A
C199        C204   1.405       .  A
C199        C207   1.489       .  S
C200        C201   1.401       .  A
C200        H209   1.083       .  S
C201        C202   1.406       .  A
C201        H210   1.081       .  S
C202        C203   1.406       .  A
C202        C205   1.489       .  S
C203        C204   1.399       .  A
C203        H211   1.083       .  S
C204        H212   1.081       .  S
C205        H213   1.085       .  S
C205        C206   1.353       .  D
C206        C318   1.491       .  S
C206        H520   1.084       .  S
C207        H215   1.086       .  S
C207        C208   1.353       .  D
C208        H216   1.083       .  S
H214        C512   1.084       .  S
C217        C218   1.406       .  A
C217        C222   1.409       .  A
C217        C225   1.498       .  S
C218        C219   1.403       .  A
C218        H227   1.083       .  S
C219        C220   1.409       .  A
C219        H228   1.081       .  S
C220        C221   1.406       .  A
C220        C223   1.497       .  S
C221        C222   1.402       .  A
C221        H229   1.083       .  S
C222        H230   1.080       .  S
C223        H231   1.086       .  S
C223        C224   1.350       .  D
C224        H232   1.082       .  S
C225        H233   1.086       .  S
C225        C226   1.350       .  D
C226        H234   1.084   1_455  S
C235        C236   1.403       .  A
C235        C240   1.410       .  A
C235        C243   1.491       .  S
C236        C237   1.397       .  A
C236        H245   1.083       .  S
C237        C238   1.407       .  A
C237        H246   1.081       .  S
C238        C239   1.403       .  A
C238        C241   1.488       .  S
C239        C240   1.401       .  A
C239        H247   1.083       .  S
C240        H248   1.081       .  S
C241        H249   1.086       .  S
C241        C242   1.345       .  D
C242        H250   1.085       .  S
C243        H251   1.087       .  S
C243        C244   1.345       .  D
C244        H252   1.083       .  S
C253        C254   1.404       .  A
C253        C258   1.408       .  A
C253        C261   1.488       .  S
C254        C255   1.397       .  A
C254        H263   1.083       .  S
C255        C256   1.407   1_545  A
C255        H264   1.082   1_545  S
C256        C257   1.403       .  A
C256        C259   1.485       .  S
C257        C258   1.399   1_565  A
C257        H265   1.083       .  S
C258        H266   1.081       .  S
C259        H267   1.086       .  S
C259        C260   1.346       .  D
C260        H268   1.084       .  S
C261        H269   1.086       .  S
C261        C262   1.346       .  D
C262        H270   1.083       .  S
C271        C276   1.409   1_546  A
C271        C578   1.402       .  A
C271        C279   1.488   1_556  S
C272        C273   1.394   1_545  A
C272        C577   1.402       .  A
C272        H281   1.084       .  S
C273        C274   1.407       .  A
C273        H282   1.082       .  S
C274        C275   1.404       .  A
C274        C277   1.486       .  S
C275        C582   1.403       .  A
C275        H589   1.083       .  S
C276        C581   1.406   1_554  A
C276        H284   1.082       .  S
C277        H285   1.085       .  S
C277        C278   1.346       .  D
C278        H286   1.085       .  S
C279        H287   1.085   1_554  S
C279        C280   1.348       .  D
C280        H288   1.083       .  S
H283        C581   1.083   1_554  S
C289        C290   1.401       .  A
C289        C294   1.406       .  A
C289        C297   1.480       .  S
C290        C291   1.394       .  A
C290        H299   1.083       .  S
C291        C292   1.408       .  A
C291        H606   1.081       .  S
C292        C293   1.406       .  A
C292        C295   1.488       .  S
C293        C294   1.401       .  A
C293        H301   1.083       .  S
C294        H302   1.083       .  S
C295        H303   1.086       .  S
C295        C602   1.346       .  D
C296        H304   1.085       .  S
C296        C601   1.346       .  D
C297        H305   1.088       .  S
C297        C298   1.344       .  D
C298        H306   1.085       .  S
H300        C597   1.081       .  S
N307        C311   1.358       .  A
N307        C308   1.358       .  A
N307        C584   1.444       .  S
C308        C309   1.385       .  A
C308        C604   1.479       .  S
C309        C310   1.371       .  A
C309        H312   1.082       .  S
C310        C311   1.385       .  A
C310        H313   1.082       .  S
C311        C566   1.485       .  S
N314        C318   1.363       .  A
N314        C315   1.358       .  A
N314        C530   1.449       .  S
C315        C316   1.376       .  A
C315        C550   1.475       .  S
C317        H320   1.081       .  S
N321        C325   1.348       .  A
N321        N322   1.323       .  A
N321       Cu329   2.084       .  S
N322        C323   1.342       .  A
N322       Cu328   2.070       .  S
C323        C324   1.379       .  A
C323        H326   1.082       .  S
C324        C325   1.388       .  A
C324        C548   1.476       .  S
C325        H327   1.082       .  S
Cu328       N331   2.069       .  S
Cu329       N339   2.083       .  S
Cu330       N332   2.066       .  S
Cu330       N338   2.066       .  S
N331        C335   1.344       .  A
N331        N332   1.320       .  A
N332        C333   1.345       .  A
C333        C334   1.387       .  A
C333        H336   1.081       .  S
C334        C335   1.383       .  A
C334        C602   1.477       .  S
C335        H337   1.082       .  S
N338        C342   1.341       .  A
N338        N339   1.323       .  A
N339        C340   1.349       .  A
C340        C341   1.388       .  A
C340        H343   1.081       .  S
C341        C342   1.378       .  A
C342        H344   1.083       .  S
N345        C349   1.358       .  A
N345        C346   1.359       .  A
N345        C458   1.441       .  S
C346        C347   1.386       .  A
C346        C494   1.487       .  S
C347        C348   1.373       .  A
C347        H350   1.082       .  S
C348        C349   1.385       .  A
C348        H351   1.081       .  S
C349        C476   1.492       .  S
N352        C356   1.357       .  A
N352        C353   1.357       .  A
N352        C568   1.443       .  S
C353        C354   1.384       .  A
C353        C442   1.483       .  S
C354        C355   1.375       .  A
C354        H357   1.082       .  S
C355        C356   1.387       .  A
C355        H358   1.081       .  S
C356        C586   1.489       .  S
N359        C363   1.357       .  A
N359        C360   1.359       .  A
N359        C478   1.442       .  S
C360        C361   1.387       .  A
C360        C422   1.487       .  S
C361        C362   1.372       .  A
C361        H364   1.082       .  S
C362        C363   1.384       .  A
C362        H365   1.082       .  S
C363        C460   1.488       .  S
N366        C370   1.346       .  A
N366        N367   1.322       .  A
N366       Cu374   2.080       .  S
N367        C368   1.346       .  A
N367       Cu373   2.078       .  S
C368        C369   1.383       .  A
C368        H371   1.082       .  S
C369        C370   1.387       .  A
C369        C404   1.480       .  S
C370        H372   1.082       .  S
Cu373       N376   2.078       .  S
Cu374       N384   2.080       .  S
Cu375       N377   2.077       .  S
Cu375       N383   2.077       .  S
N376        C380   1.346       .  A
N376        N377   1.323       .  A
N377        C378   1.345       .  A
C378        C379   1.382       .  A
C378        H381   1.082       .  S
C379        C380   1.387       .  A
C379        C440   1.479       .  S
C380        H382   1.081       .  S
N383        C387   1.347       .  A
N383        N384   1.322       .  A
N384        C385   1.345       .  A
C385        C386   1.383       .  A
C385        H388   1.082       .  S
C386        C387   1.387       .  A
C386        C424   1.480       .  S
C387        H389   1.081       .  S
N390        C394   1.365       .  A
N390        C391   1.359       .  A
N390        C532   1.447   1_655  S
C391        C392   1.381       .  A
C391        C406   1.485       .  S
C392        C393   1.369       .  A
C392        H395   1.083       .  S
C393        C394   1.388       .  A
C393        H396   1.081       .  S
C394        C514   1.490   1_655  S
C397        C398   1.403       .  A
C397        C402   1.405       .  A
C397        C405   1.483       .  S
C398        C399   1.397       .  A
C398        H407   1.084       .  S
C399        C400   1.407       .  A
C399        H408   1.081       .  S
C400        C401   1.406       .  A
C400        C403   1.489       .  S
C401        C402   1.403       .  A
C401        H409   1.083       .  S
C402        H410   1.082       .  S
C403        H411   1.086       .  S
C403        C404   1.347       .  D
C404        H412   1.085       .  S
C405        H413   1.088       .  S
C405        C406   1.348       .  D
C406        H414   1.085       .  S
C415        C416   1.407       .  A
C415        C420   1.407       .  A
C415        C423   1.493       .  S
C416        C417   1.404       .  A
C416        H425   1.083       .  S
C417        C418   1.407       .  A
C417        H426   1.082       .  S
C418        C419   1.403       .  A
C418        C421   1.487       .  S
C419        C420   1.395       .  A
C419        H427   1.083       .  S
C420        H428   1.081       .  S
C421        H429   1.087       .  S
C421        C422   1.349       .  D
C422        H430   1.084       .  S
C423        H431   1.086       .  S
C423        C424   1.348       .  D
C424        H432   1.084       .  S
C433        C434   1.403       .  A
C433        C438   1.407       .  A
C433        C441   1.485       .  S
C434        C435   1.398       .  A
C434        H443   1.083       .  S
C435        C436   1.407       .  A
C435        H444   1.081       .  S
C436        C437   1.404       .  A
C436        C439   1.488       .  S
C437        C438   1.398       .  A
C437        H445   1.083       .  S
C438        H446   1.081       .  S
C439        H447   1.085       .  S
C439        C440   1.347       .  D
C440        H448   1.084       .  S
C441        H449   1.087       .  S
C441        C442   1.345       .  D
C442        H450   1.085       .  S
C451        C452   1.404       .  A
C451        C456   1.409       .  A
C451        C459   1.490   1_556  S
C452        C453   1.395       .  A
C452        H461   1.083       .  S
C453        C454   1.407       .  A
C453        H462   1.081       .  S
C454        C455   1.406       .  A
C454        C457   1.491       .  S
C455        C456   1.404       .  A
C455        H463   1.083       .  S
C457        H465   1.086       .  S
C457        C458   1.348       .  D
C458        H466   1.084       .  S
C459        H467   1.085   1_554  S
C460        H468   1.083       .  S
C469        C470   1.406       .  A
C469        C474   1.408       .  A
C469        C477   1.492       .  S
C470        C471   1.404       .  A
C470        H479   1.083       .  S
C471        C472   1.408       .  A
C471        H480   1.081       .  S
C472        C473   1.403       .  A
C472        C475   1.489       .  S
C473        C474   1.396       .  A
C473        H481   1.084       .  S
C474        H482   1.081       .  S
C475        H483   1.086       .  S
C475        C476   1.349       .  D
C476        H484   1.084       .  S
C477        H485   1.086       .  S
C477        C478   1.347       .  D
C478        H486   1.084       .  S
C487        C488   1.408       .  A
C487        C492   1.410       .  A
C488        C489   1.404       .  A
C489        C490   1.407       .  A
C489        H498   1.081       .  S
C490        C491   1.401       .  A
C490        C493   1.486       .  S
C491        C492   1.395       .  A
C491        H499   1.084       .  S
C492        H500   1.078       .  S
C493        H501   1.087       .  S
C493        C494   1.347       .  D
C494        H502   1.085       .  S
C495        H503   1.086       .  S
C496        H504   1.081       .  S
C505        C506   1.407       .  A
C505        C510   1.405       .  A
C505        C513   1.490       .  S
C506        C507   1.401       .  A
C506        H515   1.083       .  S
C507        C508   1.406       .  A
C507        H516   1.081       .  S
C508        C509   1.407       .  A
C508        C511   1.490       .  S
C509        C510   1.400       .  A
C509        H517   1.083       .  S
C510        H518   1.081       .  S
C511        H519   1.085       .  S
C511        C512   1.353       .  D
C513        H521   1.086       .  S
C513        C514   1.353       .  D
C514        H522   1.084       .  S
C523        C524   1.407       .  A
C523        C528   1.409       .  A
C523        C531   1.499       .  S
C524        C525   1.404       .  A
C524        H533   1.083       .  S
C525        C526   1.408       .  A
C525        H534   1.081       .  S
C526        C527   1.405       .  A
C526        C529   1.497       .  S
C527        C528   1.402       .  A
C527        H535   1.084       .  S
C528        H536   1.080       .  S
C529        H537   1.086       .  S
C529        C530   1.350       .  D
C530        H538   1.083       .  S
C531        H539   1.086       .  S
C531        C532   1.350       .  D
C532        H540   1.084   1_455  S
C541        C542   1.404       .  A
C541        C546   1.411       .  A
C541        C549   1.491       .  S
C542        C543   1.397       .  A
C542        H551   1.083       .  S
C543        C544   1.407       .  A
C543        H552   1.082       .  S
C544        C545   1.402       .  A
C544        C547   1.486       .  S
C545        C546   1.400       .  A
C545        H553   1.083       .  S
C546        H554   1.080       .  S
C547        H555   1.086       .  S
C547        C548   1.344       .  D
C548        H556   1.085       .  S
C549        H557   1.088       .  S
C549        C550   1.344       .  D
C550        H558   1.082       .  S
C559        C560   1.404       .  A
C559        C564   1.407       .  A
C559        C567   1.487       .  S
C560        C561   1.398       .  A
C560        H569   1.083       .  S
C561        C562   1.407   1_545  A
C561        H570   1.081       .  S
C562        C563   1.404       .  A
C562        C565   1.485       .  S
C563        C564   1.398   1_565  A
C563        H571   1.083       .  S
C564        H572   1.081       .  S
C565        H573   1.086       .  S
C565        C566   1.347       .  D
C566        H574   1.084       .  S
C567        H575   1.086       .  S
C567        C568   1.347       .  D
C568        H576   1.083       .  S
C577        C582   1.408   1_545  A
C577        C585   1.485       .  S
C578        C579   1.394   1_545  A
C578        H587   1.083       .  S
C579        C580   1.406       .  A
C579        H588   1.082       .  S
C580        C581   1.406       .  A
C580        C583   1.491       .  S
C582        H590   1.082       .  S
C583        H591   1.085       .  S
C583        C584   1.348       .  D
C584        H592   1.085       .  S
C585        H593   1.085       .  S
C585        C586   1.347       .  D
C586        H594   1.084       .  S
C595        C596   1.401       .  A
C595        C600   1.406       .  A
C595        C603   1.479       .  S
C596        C597   1.394       .  A
C596        H605   1.084       .  S
C597        C598   1.408   1_556  A
C598        C599   1.405   1_554  A
C598        C601   1.487       .  S
C599        C600   1.401       .  A
C599        H607   1.083   1_556  S
C600        H608   1.082       .  S
C601        H609   1.086       .  S
C602        H610   1.084       .  S
C603        H611   1.088       .  S
C603        C604   1.345       .  D
C604        H612   1.085       .  S
