geometry optimzed in LAMMPS
_audit_creation_date              2020-11-30 
_audit_creation_method            'lammps2cif' 
_symmetry_space_group_name_H-M    'P1' 
_symmetry_Int_Tables_number       1 
_symmetry_cell_setting            triclinic 
loop_ 
_symmetry_equiv_pos_as_xyz 
  x,y,z 
_cell_length_a                    50.05288753 
_cell_length_b                    50.510327767505814 
_cell_length_c                    41.74081015973845 
_cell_angle_alpha                 88.99023421814752 
_cell_angle_beta                  89.94801871264069 
_cell_angle_gamma                 119.6545918885328 
loop_ 
_atom_site_label 
_atom_site_type_symbol 
_atom_site_fract_x 
_atom_site_fract_y 
_atom_site_fract_z 
_atom_site_charge 
C1          C  0.11219352  0.17500932  0.33401005     0.02100
C2          C  0.09284664  0.16006379  0.30778788     0.02100
C3          C  0.06435855  0.15940588  0.30527497     0.02100
C4          C  0.05693922  0.17696990  0.32670601     0.02100
C5          C  0.07241863  0.18469888  0.35749426     0.02100
C6          C  0.10243703  0.18711834  0.35938405     0.02100
C7          C  0.14497917  0.10247247  0.22732715    -0.11100
C8          C  0.13927749  0.07489872  0.24190416    -0.04900
C9          C  0.14134825  0.05206193  0.22519065    -0.11000
C10         C  0.15494853  0.05942341  0.19395310     0.09900
C11         C  0.16760197  0.08974429  0.18177267    -0.02800
C12         C  0.16059605  0.11057144  0.19718152     0.09700
C13         C  0.16956221  0.13864310  0.18183211    -0.12800
C14         C  0.19059797  0.14887392  0.15650958    -0.12800
C15         C  0.19905869  0.12934517  0.14150573     0.09700
C16         C  0.18613882  0.09884582  0.15331263    -0.02800
C17         C  0.15541652  0.03760917  0.17384684    -0.13000
C18         C  0.17297147  0.04635302  0.14550123    -0.13000
C19         C  0.19116975  0.07731654  0.13648188     0.09900
C20         C  0.21330907  0.08767641  0.11079084    -0.11000
C21         C  0.22861027  0.11894914  0.10296429    -0.04900
C22         C  0.21982413  0.13924769  0.11501377    -0.11100
H23         H  0.16175535  0.15377712  0.19012707     0.07200
H24         H  0.20031935  0.17250136  0.14920817     0.07200
H25         H  0.14252344  0.01359226  0.18010581     0.07300
H26         H  0.17190058  0.02847354  0.13083814     0.07300
H27         H  0.13059347  0.07014957  0.26636169     0.03800
H28         H  0.24658794  0.12729200  0.08511314     0.03800
C29         C  0.46408957  0.08522872  0.22016941    -0.11100
C30         C  0.44786489  0.05392828  0.22696489    -0.04900
C31         C  0.42220510  0.03340894  0.20955405    -0.11000
C32         C  0.41399921  0.04456099  0.18208645     0.09900
C33         C  0.42859927  0.07654325  0.17592140    -0.02800
C34         C  0.45249418  0.09700985  0.19617693     0.09700
C35         C  0.46264276  0.12833103  0.19299141    -0.12800
C36         C  0.45169852  0.13954684  0.16851619    -0.12800
C37         C  0.43232000  0.12027884  0.14482260     0.09700
C38         C  0.41885944  0.08813275  0.14984158    -0.02800
C39         C  0.39207140  0.02473959  0.16044087    -0.13000
C40         C  0.38341852  0.03603345  0.13410301    -0.13000
C41         C  0.39525474  0.06751868  0.12930612     0.09900
C42         C  0.38468884  0.07911398  0.10418856    -0.11000
C43         C  0.40160964  0.11029485  0.09714110    -0.04900
C44         C  0.42506335  0.13169802  0.11673286    -0.11100
H45         H  0.47887287  0.14436660  0.20968154     0.07200
H46         H  0.45913671  0.16363581  0.16778810     0.07200
H47         H  0.38186686  0.00028739  0.16343875     0.07300
H48         H  0.36693874  0.01983900  0.11769202     0.07300
H49         H  0.45469961  0.04553157  0.24755320     0.03800
H50         H  0.39549284  0.11825128  0.07582087     0.03800
C51         C  0.10965026  0.44764003  0.33343912     0.02100
C52         C  0.09157833  0.44182039  0.30538566     0.02100
C53         C  0.06571991  0.41218777  0.30117050     0.02100
C54         C  0.05565387  0.39077694  0.32766044     0.02100
C55         C  0.07473509  0.39577820  0.35473933     0.02100
C56         C  0.10229417  0.42429924  0.35710655     0.02100
C57         C  0.34421134  0.45006197  0.32891660     0.02100
C58         C  0.35678189  0.43971577  0.30435426     0.02100
C59         C  0.35670215  0.41167913  0.30894281     0.02100
C60         C  0.34325477  0.39346347  0.33675851     0.02100
C61         C  0.32824713  0.40205375  0.36003785     0.02100
C62         C  0.32942063  0.43094830  0.35678672     0.02100
C63         C  0.41984863  0.36670060  0.22660451    -0.11100
C64         C  0.44446307  0.36503442  0.24096507    -0.04900
C65         C  0.46259331  0.35586868  0.22415132    -0.11000
C66         C  0.45008866  0.33795588  0.19710897     0.09900
C67         C  0.42344307  0.33623474  0.18306471    -0.02800
C68         C  0.41051167  0.35351634  0.19555305     0.09700
C69         C  0.38943769  0.35718348  0.17607899    -0.12800
C70         C  0.37700828  0.33976805  0.14860894    -0.12800
C71         C  0.38590915  0.31870915  0.13914767     0.09700
C72         C  0.41069574  0.31833550  0.15556584    -0.02800
C73         C  0.46285281  0.32117304  0.18428692    -0.13000
C74         C  0.44875061  0.30160653  0.15924250    -0.13000
C75         C  0.42381066  0.30111086  0.14355309     0.09900
C76         C  0.41169280  0.28389702  0.11590869    -0.11000
C77         C  0.38255174  0.27809621  0.10656432    -0.04900
C78         C  0.37184146  0.29826567  0.11352106    -0.11100
H79         H  0.38258573  0.37380545  0.18158608     0.02700
H80         H  0.36027789  0.34280094  0.13506584     0.07200
H81         H  0.48314026  0.32196325  0.19393778     0.07300
H82         H  0.45828167  0.28766325  0.15131982     0.07300
H83         H  0.45126589  0.37255496  0.26511096     0.03800
H84         H  0.37014130  0.26120091  0.08884605     0.03800
C85         C  0.27746733  0.99714326  0.00141617     0.02100
C86         C  0.27396877  0.01347521  0.02704066     0.02100
C87         C  0.24517627  0.01215086  0.03191149     0.02100
C88         C  0.22051279  0.99517729  0.01044783     0.02100
C89         C  0.22415965  0.47923944  0.98442477     0.02100
C90         C  0.25292455  0.48047313  0.97994905     0.02100
C91         C  0.28313152  0.28276851  0.98978006     0.02100
C92         C  0.27561939  0.26503225  0.01907581     0.02100
C93         C  0.24806817  0.23674980  0.02141099     0.02100
C94         C  0.22711550  0.22760804  0.99545952     0.02100
C95         C  0.23339279  0.24662653  0.96729554     0.02100
C96         C  0.26292112  0.27370644  0.96252459     0.02100
C97         C  0.98854166  0.21701708  0.99896913     0.02100
C98         C  0.47544974  0.22659414  0.02311964     0.02100
C99         C  0.47663511  0.25505260  0.01961571     0.02100
C100        C  0.99268114  0.27491826  0.99350798     0.02100
C101        C  0.00436012  0.26483620  0.96825371     0.02100
C102        C  0.00259719  0.23574946  0.97097059     0.02100
C103        C  0.16368307  0.05390226  0.66309118     0.02100
C104        C  0.17122378  0.07198897  0.63372628     0.02100
C105        C  0.17493029  0.10199770  0.63635340     0.02100
C106        C  0.16662418  0.11109834  0.66514778     0.02100
C107        C  0.15588285  0.09147305  0.69229911     0.02100
C108        C  0.15730372  0.06406766  0.69264031     0.02100
C109        C  0.12623574  0.20941564  0.88565774    -0.11100
C110        C  0.10563358  0.21836364  0.89695516    -0.04900
C111        C  0.07644971  0.20810280  0.88386881    -0.11000
C112        C  0.06932588  0.19205760  0.85472932     0.09900
C113        C  0.09004262  0.18312850  0.84203579    -0.02800
C114        C  0.11824018  0.19131406  0.85776155     0.09700
C115        C  0.13726316  0.18080640  0.84518785    -0.12800
C116        C  0.12712478  0.15954455  0.82097533    -0.12800
C117        C  0.10116579  0.15346622  0.80303075     0.09700
C118        C  0.08211900  0.16522031  0.81387821    -0.02800
C119        C  0.04250368  0.18481718  0.83761194    -0.13000
C120        C  0.03725501  0.17138338  0.80791774    -0.13000
C121        C  0.05494012  0.15884400  0.79701220     0.09900
C122        C  0.04619809  0.13999651  0.76992153    -0.11000
C123        C  0.06613790  0.12989757  0.75931920    -0.04900
C124        C  0.09352827  0.13610206  0.77465975    -0.11100
H125        H  0.15977386  0.18782325  0.85470329     0.07200
H126        H  0.14071408  0.14891362  0.81564918     0.07200
H127        H  0.02507887  0.18945194  0.84621599     0.07300
H128        H  0.01798991  0.16948644  0.79444740     0.07300
H129        H  0.11127113  0.23167805  0.91849766     0.03800
H130        H  0.05992775  0.11641089  0.73813408     0.03800
C131        C  0.07891239  0.36514883  0.88285391    -0.11100
C132        C  0.10247021  0.38535624  0.90273032    -0.04900
C133        C  0.12553021  0.41401425  0.89211540    -0.11000
C134        C  0.12296393  0.42414720  0.86083082     0.09900
C135        C  0.09645782  0.40590707  0.84209670    -0.02800
C136        C  0.07514898  0.37570955  0.85231436     0.09700
C137        C  0.05113154  0.35725673  0.83156243    -0.12800
C138        C  0.04553541  0.36948535  0.80366058    -0.12800
C139        C  0.06372453  0.40049754  0.79536209     0.09700
C140        C  0.09119129  0.41804748  0.81321511    -0.02800
C141        C  0.14580474  0.45200548  0.84775153    -0.13000
C142        C  0.14042694  0.46430749  0.82008436    -0.13000
C143        C  0.11295868  0.44810292  0.80301067     0.09900
C144        C  0.10634812  0.46121101  0.77632969    -0.11000
C145        C  0.07843458  0.44423559  0.76026240    -0.04900
C146        C  0.05608942  0.41447342  0.76943826    -0.11100
H147        H  0.03602005  0.33333947  0.83700654     0.07200
H148        H  0.02635518  0.35460823  0.78894995     0.07200
H149        H  0.16754805  0.46528499  0.85959574     0.07300
H150        H  0.15786333  0.48699677  0.81275641     0.07300
H151        H  0.10314116  0.37818964  0.92722966     0.03800
H152        H  0.07354045  0.45567653  0.74092876     0.03800
C153        C  0.44062257  0.11108690  0.66074074     0.02100
C154        C  0.43720766  0.09417519  0.68983729     0.02100
C155        C  0.40884696  0.06748811  0.69745446     0.02100
C156        C  0.38450775  0.05683451  0.67468998     0.02100
C157        C  0.38744607  0.07356404  0.64579693     0.02100
C158        C  0.41532890  0.10119346  0.63941008     0.02100
C159        C  0.44932783  0.34102274  0.66905624     0.02100
C160        C  0.44402523  0.35868062  0.69190908     0.02100
C161        C  0.41563525  0.35855704  0.69141761     0.02100
C162        C  0.39466038  0.34398707  0.66575552     0.02100
C163        C  0.40025791  0.32703619  0.64205456     0.02100
C164        C  0.42811333  0.32564194  0.64361459     0.02100
C165        C  0.28422339  0.41713757  0.88482495    -0.11100
C166        C  0.26778557  0.38527826  0.88819626    -0.04900
C167        C  0.27696618  0.36698754  0.87241592    -0.11000
C168        C  0.29916106  0.37995950  0.84751447     0.09900
C169        C  0.31526296  0.41198385  0.84220697    -0.02800
C170        C  0.30853196  0.43085680  0.86168384     0.09700
C171        C  0.32712291  0.46265436  0.85829197    -0.12800
C172        C  0.35026706  0.47561366  0.83486071    -0.12800
C173        C  0.35594881  0.45739328  0.81390293     0.09700
C174        C  0.33933469  0.42516521  0.81868965    -0.02800
C175        C  0.30593343  0.36156438  0.82821400    -0.13000
C176        C  0.32823889  0.37424098  0.80410183    -0.13000
C177        C  0.34646460  0.40599600  0.79993877     0.09900
C178        C  0.37115659  0.41926390  0.77728844    -0.11000
C179        C  0.38643203  0.45109333  0.77281672    -0.04900
C180        C  0.37843550  0.47041126  0.78898714    -0.11100
H181        H  0.32424080  0.47792845  0.87389825     0.07200
H182        H  0.36424372  0.50019158  0.83379217     0.07200
H183        H  0.29328970  0.33700664  0.83104888     0.07300
H184        H  0.33061459  0.35863579  0.78862865     0.07300
H185        H  0.25021298  0.37480672  0.90675910     0.03800
H186        H  0.40416244  0.46089331  0.75459333     0.03800
C187        C  0.01282793  0.23197772  0.43387834    -0.11100
C188        C  0.02369500  0.26106926  0.41999498    -0.04900
C189        C  0.02231332  0.28484355  0.43598341    -0.11000
C190        C  0.00862217  0.27821709  0.46735558     0.09900
C191        C  0.99359002  0.24763828  0.47961011    -0.02800
C192        C  0.99580883  0.22461655  0.46276011     0.09700
C193        C  0.98082116  0.19475559  0.47522943    -0.12800
C194        C  0.46136539  0.18685014  0.50152715    -0.12800
C195        C  0.46177268  0.20924783  0.52111848     0.09700
C196        C  0.47780829  0.24021823  0.50981799    -0.02800
C197        C  0.01061420  0.30114012  0.48754309    -0.13000
C198        C  0.49567310  0.29403685  0.51744034    -0.13000
C199        C  0.47822640  0.26367280  0.52859267     0.09900
C200        C  0.46235744  0.25594680  0.55859708    -0.11000
C201        C  0.44817288  0.22559000  0.56933450    -0.04900
C202        C  0.44714263  0.20182472  0.55174338    -0.11100
H203        H  0.98290091  0.17672830  0.46426340     0.07200
H204        H  0.44636133  0.16286185  0.50628382     0.07200
H205        H  0.02407677  0.32492465  0.48051768     0.07300
H206        H  0.49839178  0.31269811  0.53200119     0.07300
H207        H  0.03479087  0.26546214  0.39670153     0.03800
H208        H  0.43768833  0.22037283  0.59277294     0.03800
C209        C  0.20501130  0.24959135  0.44807639    -0.11100
C210        C  0.22509682  0.27865763  0.43529564    -0.04900
C211        C  0.25607558  0.29584985  0.44399815    -0.11000
C212        C  0.26638944  0.28547193  0.47076736     0.09900
C213        C  0.24501898  0.25852914  0.48782342    -0.02800
C214        C  0.21463244  0.24018305  0.47589384     0.09700
C215        C  0.19472143  0.21306207  0.49226265    -0.12800
C216        C  0.20477086  0.20280279  0.51805889    -0.12800
C217        C  0.23336127  0.22158305  0.53237818     0.09700
C218        C  0.25411666  0.24958071  0.51668863    -0.02800
C219        C  0.29724799  0.30034458  0.48067403    -0.13000
C220        C  0.30603626  0.29162546  0.50906852    -0.13000
C221        C  0.28435122  0.26788272  0.52893307     0.09900
C222        C  0.29187713  0.26092364  0.55997930    -0.11000
C223        C  0.26940503  0.23455253  0.57610543    -0.04900
C224        C  0.24200442  0.21328993  0.56166650    -0.11100
H225        H  0.17124066  0.19889519  0.48471688     0.07200
H226        H  0.18930065  0.17992151  0.52635246     0.07200
H227        H  0.31501415  0.31885089  0.46660057     0.07300
H228        H  0.33003891  0.30393556  0.51551881     0.07300
H229        H  0.21700947  0.28767345  0.41636774     0.03800
H230        H  0.27392633  0.22940046  0.60014324     0.03800
C231        C  0.21057842  0.46422832  0.43751021    -0.11100
C232        C  0.23673962  0.46626304  0.42261490    -0.04900
C233        C  0.26376682  0.47302069  0.43927106    -0.11000
C234        C  0.26759335  0.48549512  0.47041954     0.09900
C235        C  0.24310801  0.48798256  0.48476175    -0.02800
C236        C  0.21394532  0.47507303  0.46948158     0.09700
C237        C  0.18926640  0.47379655  0.48681958    -0.12800
C238        C  0.19422194  0.99130493  0.51371663    -0.12800
C239        C  0.22283828  0.00542221  0.52868007     0.09700
C240        C  0.24727716  0.00238033  0.51510896    -0.02800
C241        C  0.29506157  0.49614265  0.48744619    -0.13000
C242        C  0.29986228  0.01206501  0.51590300    -0.13000
C243        C  0.27608239  0.01471316  0.53101870     0.09900
C244        C  0.27991431  0.02924744  0.56129046    -0.11000
C245        C  0.25496011  0.03150545  0.57370763    -0.04900
C246        C  0.22737250  0.02161526  0.55733605    -0.11100
H247        H  0.16569979  0.45967996  0.47983990     0.07200
H248        H  0.17487355  0.99262829  0.52316663     0.07200
H249        H  0.31368662  0.49334232  0.47835135     0.07300
H250        H  0.32281531  0.02267173  0.52536003     0.07300
H251        H  0.23574912  0.46089182  0.39755579     0.03800
H252        H  0.25693367  0.04164261  0.59679865     0.03800
O253        O  0.01532220  0.46368223  0.02828525    -0.88500
C254        C  0.06108948  0.03054259  0.95991148     0.87500
Mg255      Mg  0.46890079  0.42855747  0.02246040     1.58100
O256        O  0.03864721  0.05464800  0.02892966    -0.88300
O257        O  0.04451610  0.99978613  0.06100883    -0.75600
C258        C  0.39242145  0.99781766  0.98258408     0.92500
O259        O  0.00742108  0.45832071  0.95108283    -0.75400
O260        O  0.39231493  0.47287154  0.97952166    -0.82900
Mg261      Mg  0.04549194  0.47061941  0.98823479     1.58000
C262        C  0.99412069  0.10607708  0.01285781     0.92500
O263        O  0.08530381  0.48000939  0.02129304    -0.81200
H264        H  0.03928495  0.06077333  0.07618167    -0.06500
C265        C  0.48061526  0.03234381  0.95169551     0.87400
O266        O  0.45093700  0.45368445  0.05358284    -0.75700
O267        O  0.05666034  0.01795894  0.98653323    -0.88500
O268        O  0.02020917  0.10770178  0.00902014    -0.81300
C269        C  0.11025871  0.11384319  0.99832033     0.92600
C270        C  0.11066408  0.00438741  0.02508442     0.92400
Mg271      Mg  0.45899253  0.03314203  0.01883320     1.58000
O272        O  0.41711500  0.02269529  0.98724162    -0.81200
O273        O  0.49769997  0.04669428  0.05573392    -0.75400
O274        O  0.10973889  0.08903028  0.00609306    -0.81300
O275        O  0.03414501  0.42071500  0.98928067    -0.83000
O276        O  0.39747335  0.41882644  0.00459310    -0.81300
C277        C  0.02604779  0.05459123  0.05440749     0.86900
O278        O  0.44889907  0.48697189  0.02126800    -0.88400
O279        O  0.48961069  0.04078143  0.97915101    -0.88600
O280        O  0.46037159  0.50500330  0.94617785    -0.75600
Mg281      Mg  0.07458764  0.04273705  0.02995822     1.58000
O282        O  0.08570434  0.11438390  0.99166857    -0.83000
H283        H  0.01429206  0.45646574  0.07564204    -0.06700
O284        O  0.46743679  0.45147495  0.97892029    -0.88300
H285        H  0.46557008  0.44497995  0.93166551    -0.06500
H286        H  0.43532978  0.48208951  0.06711629    -0.06700
C287        C  0.47927383  0.45100033  0.95311524     0.86800
C288        C  0.02429841  0.47238675  0.05567971     0.87400
C289        C  0.44442346  0.47458991  0.04798461     0.87500
H290        H  0.49057846  0.04844532  0.93187303    -0.06700
O291        O  0.05446632  0.05141952  0.95447381    -0.75700
Mg292      Mg  0.43108596  0.46246587  0.97808336     1.58000
H293        H  0.07025808  0.02323467  0.94067532    -0.06700
C294        C  0.50799017  0.39668825  0.99150232     0.92500
O295        O  0.42042324  0.39151313  0.01393254    -0.82900
C296        C  0.39644425  0.39341659  0.00875293     0.92500
O297        O  0.11207854  0.03006283  0.02816750    -0.82900
Mg298      Mg  0.03631965  0.07679886  0.98503181     1.58200
O299        O  0.48395558  0.39793760  0.99856220    -0.81300
O300        O  0.46927961  0.08096555  0.01518795    -0.83000
O301        O  0.34908056  0.13064877  0.35366665    -0.88500
C302        C  0.38284005  0.19784934  0.28308364     0.87500
Mg303      Mg  0.30201107  0.09436289  0.35139608     1.58100
O304        O  0.36925455  0.21914734  0.35874935    -0.88300
O305        O  0.38166887  0.16726895  0.38385599    -0.75600
C306        C  0.22237315  0.16534233  0.33012677     0.92500
O307        O  0.33125933  0.12227426  0.27814831    -0.75400
O308        O  0.22168474  0.14055532  0.32353714    -0.82900
Mg309      Mg  0.37436303  0.13846503  0.30937326     1.58000
C310        C  0.32931522  0.27351762  0.35698233     0.92500
O311        O  0.42073488  0.15310229  0.33294535    -0.81200
H312        H  0.37787797  0.22565736  0.40561242    -0.06500
C313        C  0.30565895  0.20015263  0.29143938     0.87400
O314        O  0.28653126  0.11835135  0.38762440    -0.75700
O315        O  0.38206411  0.18486251  0.30875206    -0.88500
O316        O  0.35345153  0.27142720  0.35575619    -0.81300
C317        C  0.43671371  0.28028419  0.32143158     0.92600
C318        C  0.44477420  0.17921771  0.33367150     0.92400
Mg319      Mg  0.29162398  0.20004343  0.36199041     1.58000
O320        O  0.24713765  0.18902924  0.33763930    -0.81200
O321        O  0.33390123  0.21282077  0.39335675    -0.75400
O322        O  0.43511175  0.25447018  0.32274892    -0.81300
O323        O  0.36609464  0.08961153  0.31349883    -0.83000
O324        O  0.22796514  0.08332920  0.34200187    -0.81300
C325        C  0.36132158  0.21968509  0.38661206     0.86900
O326        O  0.28099764  0.15286183  0.36081356    -0.88400
O327        O  0.31698364  0.20803989  0.31822657    -0.88600
O328        O  0.28593132  0.17268867  0.28591431    -0.75600
Mg329      Mg  0.40532498  0.21012419  0.35077780     1.58000
O330        O  0.41249980  0.28227366  0.32267784    -0.83000
H331        H  0.35464283  0.12362726  0.39990563    -0.06700
O332        O  0.29606082  0.11831155  0.31156049    -0.88300
H333        H  0.28713659  0.10819901  0.26528045    -0.06500
H334        H  0.27224227  0.14557672  0.40787814    -0.06700
C335        C  0.30384278  0.11580818  0.28426819     0.86800
C336        C  0.36144284  0.13958243  0.37987058     0.87400
C337        C  0.27943110  0.13927446  0.38624755     0.87500
H338        H  0.31342679  0.21683798  0.27203005    -0.06700
O339        O  0.37676025  0.21952822  0.28183728    -0.75700
Mg340      Mg  0.25983060  0.12931861  0.31710234     1.58000
H341        H  0.38867800  0.19056465  0.26125251    -0.06700
C342        C  0.34102807  0.06458398  0.31759168     0.92500
O343        O  0.25244032  0.05675646  0.34594187    -0.82900
C344        C  0.22774943  0.05801330  0.34360063     0.92500
O345        O  0.44360235  0.20280101  0.34030475    -0.82900
Mg346      Mg  0.36354548  0.24389770  0.32015216     1.58200
O347        O  0.31569050  0.06451251  0.32133387    -0.81300
O348        O  0.30286217  0.24986950  0.35926866    -0.83000
O349        O  0.15085574  0.36920186  0.70705857    -0.88500
C350        C  0.10929716  0.30889376  0.63545895     0.87500
Mg351      Mg  0.19755469  0.40467220  0.70448359     1.58100
O352        O  0.12619941  0.27907059  0.70442948    -0.88300
O353        O  0.11900307  0.33150781  0.73832707    -0.75600
C354        C  0.27566036  0.33726645  0.66539981     0.92500
O355        O  0.16429792  0.37983334  0.63066035    -0.75400
O356        O  0.27608391  0.36255449  0.66301175    -0.82900
Mg357      Mg  0.12369897  0.36527672  0.66557953     1.58000
C358        C  0.16788873  0.22557470  0.68571955     0.92500
O359        O  0.08187505  0.35423315  0.69634934    -0.81200
H360        H  0.12160828  0.26789821  0.75111121    -0.06500
C361        C  0.19001377  0.30660242  0.63088911     0.87400
O362        O  0.21272218  0.37647155  0.73580307    -0.75700
O363        O  0.11201151  0.31881269  0.66276613    -0.88500
O364        O  0.14308988  0.22677323  0.68492180    -0.81300
C365        C  0.05597873  0.22505765  0.66757047     0.92600
C366        C  0.05593860  0.33010829  0.69882850     0.92400
Mg367      Mg  0.20585550  0.29856826  0.69823690     1.58000
O368        O  0.25066254  0.31229895  0.66999316    -0.81200
O369        O  0.16434879  0.28229552  0.73278624    -0.75400
O370        O  0.05766211  0.24933575  0.67775275    -0.81300
O371        O  0.13524374  0.41394747  0.66745846    -0.83000
O372        O  0.27163079  0.41795351  0.68831984    -0.81300
C373        C  0.13649274  0.27587375  0.73019418     0.86900
O374        O  0.21754141  0.34568819  0.70331039    -0.88400
O375        O  0.17857994  0.29591910  0.65748876    -0.88600
O376        O  0.21106653  0.33418636  0.62731282    -0.75600
Mg377      Mg  0.09082901  0.29144516  0.70500476     1.58000
O378        O  0.08009694  0.22318143  0.66223046    -0.83000
H379        H  0.14880623  0.37371749  0.75436006    -0.06700
O380        O  0.20250891  0.38553285  0.66065616    -0.88300
H381        H  0.20753904  0.39492116  0.61356738    -0.06500
H382        H  0.22677974  0.34668068  0.75002665    -0.06700
C383        C  0.19236745  0.38746455  0.63426093     0.86800
C384        C  0.13991078  0.35903350  0.73396788     0.87400
C385        C  0.21954193  0.35584811  0.73041294     0.87500
H386        H  0.18161427  0.29231698  0.61015498    -0.06700
O387        O  0.11638366  0.28871582  0.62901113    -0.75700
Mg388      Mg  0.23844406  0.37423154  0.66121004     1.58000
H389        H  0.10167314  0.31831833  0.61644794    -0.06700
C390        C  0.16074094  0.43812852  0.67099653     0.92500
O391        O  0.24655909  0.44233088  0.70038439    -0.82900
C392        C  0.27155977  0.44239487  0.69536151     0.92500
O393        O  0.05347674  0.30401246  0.70243960    -0.82900
Mg394      Mg  0.13088013  0.26026495  0.65997315     1.58200
O395        O  0.18469208  0.43740625  0.67970551    -0.81300
O396        O  0.19367490  0.24950965  0.68981248    -0.83000
C397        C  0.02818681  0.34715842  0.66371419    -0.09400
C398        C  0.02847319  0.33254706  0.69248169     0.06800
C399        C  0.00215455  0.31891380  0.71217356    -0.03100
C400        C  0.47647608  0.32130844  0.70347357    -0.07600
C401        C  0.47637765  0.33668684  0.67496356     0.06000
C402        C  0.00236309  0.34886906  0.65445881    -0.02600
Br403      Br  0.00452241  0.36762718  0.61346315    -0.02300
H404        H  0.04807097  0.35669003  0.64782748     0.09900
H405        H  0.45648680  0.31144804  0.71919925     0.07900
Br406      Br  0.00067466  0.29802562  0.75149442    -0.02700
C407        C  0.33070074  0.36258341  0.64927250    -0.09400
C408        C  0.30540891  0.33752628  0.66414361     0.06800
C409        C  0.31014132  0.31527199  0.68020712    -0.03100
C410        C  0.33947694  0.31837886  0.68071667    -0.07600
C411        C  0.36456828  0.34333502  0.66577913     0.06000
C412        C  0.36002153  0.36574044  0.64984935    -0.02600
Br413      Br  0.39200348  0.40038601  0.62671437    -0.02300
H414        H  0.32769733  0.37998148  0.63696503     0.09900
H415        H  0.34281670  0.30113169  0.69290889     0.07900
Br416      Br  0.27853410  0.28106807  0.70383747    -0.02700
C417        C  0.40736080  0.40111072  0.70689486    -0.09400
C418        C  0.40778901  0.37476470  0.71642408     0.06800
C419        C  0.39513265  0.36187907  0.74692240    -0.03100
C420        C  0.38567291  0.37746857  0.76788664    -0.07600
C421        C  0.38178326  0.40182289  0.75637400     0.06000
C422        C  0.39042453  0.41120180  0.72420607    -0.02600
Br423      Br  0.37256743  0.43081619  0.70021978    -0.02300
H424        H  0.41700445  0.41159890  0.68401385     0.09900
H425        H  0.37963716  0.36926318  0.79238901     0.07900
Br426      Br  0.38604811  0.32146711  0.75913032    -0.02700
C427        C  0.36537645  0.32566952  0.59718841    -0.09400
C428        C  0.37555979  0.30974323  0.61720734     0.06800
C429        C  0.35922148  0.27768227  0.61572442    -0.03100
C430        C  0.33466572  0.26305289  0.59428603    -0.07600
C431        C  0.32244952  0.27897497  0.57693883     0.06000
C432        C  0.33776828  0.31093287  0.58011266    -0.02600
Br433      Br  0.31987330  0.33550977  0.56754365    -0.02300
H434        H  0.37806122  0.35003422  0.59628828     0.09900
H435        H  0.32363109  0.23856737  0.59312281     0.07900
Br436      Br  0.36642180  0.25224784  0.64498168    -0.02700
C437        C  0.44383910  0.28656103  0.63246436    -0.09400
C438        C  0.43516078  0.30726148  0.62013947     0.06800
C439        C  0.43732272  0.31231747  0.58641074    -0.03100
C440        C  0.44637748  0.29582315  0.56651106    -0.07600
C441        C  0.45751177  0.27726822  0.57948263     0.06000
C442        C  0.45811516  0.27479379  0.61326891    -0.02600
Br443      Br  0.98016860  0.25765044  0.63508646    -0.02300
H444        H  0.44169725  0.28122277  0.65785494     0.09900
H445        H  0.44524771  0.29805508  0.54077875     0.07900
Br446      Br  0.43228820  0.34380317  0.56594703    -0.02700
C447        C  0.32842732  0.47217427  0.68551305    -0.09400
C448        C  0.30113256  0.47192726  0.69456091     0.06800
C449        C  0.30225260  0.50033329  0.69826160    -0.03100
C450        C  0.32882083  0.02735661  0.68940039    -0.07600
C451        C  0.35584050  0.02736679  0.68079840     0.06000
C452        C  0.35576947  0.49959014  0.67961930    -0.02600
Br453      Br  0.39264975  0.49868318  0.66881765    -0.02300
H454        H  0.32844303  0.45097807  0.68243917     0.09900
H455        H  0.32893642  0.04880285  0.69092972     0.07900
Br456      Br  0.26992322  0.00487309  0.71759437    -0.02700
C457        C  0.47090140  0.16518532  0.67686213    -0.09400
C458        C  0.46873529  0.14228324  0.65664423     0.06800
C459        C  0.99497986  0.14875482  0.63763530    -0.03100
C460        C  0.02244350  0.17620324  0.64094747    -0.07600
C461        C  0.02508685  0.19808389  0.66263465     0.06000
C462        C  0.99853230  0.19267763  0.68020929    -0.02600
Br463      Br  0.49858858  0.21999436  0.71171912    -0.02300
H464        H  0.45130944  0.16083323  0.69170510     0.09900
H465        H  0.04235330  0.18014572  0.62690091     0.07900
Br466      Br  0.99777881  0.12197514  0.60791849    -0.02700
C467        C  0.37142418  0.51488670  0.77027825    -0.09400
C468        C  0.39087255  0.50234718  0.77508156     0.06800
C469        C  0.42034942  0.51804238  0.76035980    -0.03100
C470        C  0.42598517  0.03879306  0.73505713    -0.07600
C471        C  0.40508029  0.04899279  0.72788567     0.06000
C472        C  0.38006122  0.03997574  0.74931165    -0.02600
Br473      Br  0.35939890  0.06318993  0.75323869    -0.02300
H474        H  0.34922025  0.50505570  0.78206208     0.09900
H475        H  0.44671785  0.04668191  0.72093997     0.07900
Br476      Br  0.45404662  0.51279663  0.77437399    -0.02700
C477        C  0.34350395  0.07756422  0.62101939    -0.09400
C478        C  0.36071610  0.06254197  0.62293131     0.06800
C479        C  0.35132779  0.03669486  0.60378045    -0.03100
C480        C  0.32415249  0.02509639  0.58601909    -0.07600
C481        C  0.30868118  0.04175636  0.58151869     0.06000
C482        C  0.31984268  0.06927436  0.59869806    -0.02600
Br483      Br  0.30610562  0.09835941  0.59135227    -0.02300
H484        H  0.34878911  0.09636883  0.63646144     0.09900
H485        H  0.31575788  0.50324219  0.57487326     0.07900
Br486      Br  0.37583139  0.51781088  0.59795762    -0.02700
C487        C  0.40506330  0.14100852  0.61578512    -0.09400
C488        C  0.41744504  0.12172829  0.61232119     0.06800
C489        C  0.43414580  0.12460621  0.58430144    -0.03100
C490        C  0.44584990  0.15151869  0.56587542    -0.07600
C491        C  0.43307019  0.17090402  0.56856702     0.06000
C492        C  0.40902269  0.16210229  0.59157249    -0.02600
Br493      Br  0.37969790  0.17632165  0.59034854    -0.02300
H494        H  0.39164329  0.13922724  0.63682833     0.09900
H495        H  0.46476655  0.15660172  0.54984101     0.07900
Br496      Br  0.43546092  0.09036334  0.56697679    -0.02700
C497        C  0.02594375  0.40820746  0.71849625    -0.09400
C498        C  0.02560828  0.40057517  0.75139449     0.06800
C499        C  0.49606165  0.38399214  0.76622392    -0.03100
C500        C  0.46919018  0.37103616  0.74740994    -0.07600
C501        C  0.47009020  0.37817826  0.71450551     0.06000
C502        C  0.49880991  0.39983911  0.70154206    -0.02600
Br503      Br  0.00167691  0.41976891  0.66118098    -0.02300
H504        H  0.04743973  0.42176731  0.70568658     0.09900
H505        H  0.44774792  0.35545542  0.75885191     0.07900
Br506      Br  0.48988446  0.38146494  0.81184211    -0.02700
C507        C  0.01863031  0.12701380  0.71767538    -0.09400
C508        C  0.01708801  0.13008623  0.75103414     0.06800
C509        C  0.48722316  0.11853750  0.76486250    -0.03100
C510        C  0.46179093  0.11015807  0.74477315    -0.07600
C511        C  0.46398217  0.10516136  0.71205381     0.06000
C512        C  0.49210683  0.10944373  0.70060433    -0.02600
Br513      Br  0.99336384  0.08163060  0.67089887    -0.02300
H514        H  0.04025523  0.13418364  0.70548253     0.09900
H515        H  0.43973062  0.10443813  0.75520937     0.07900
Br516      Br  0.47803023  0.10721436  0.80942250    -0.02700
C517        C  0.14080349  0.14260312  0.66539809    -0.09400
C518        C  0.16816717  0.14149154  0.66738655     0.06800
C519        C  0.19533982  0.16806419  0.67566712    -0.03100
C520        C  0.19464013  0.19492269  0.68174244    -0.07600
C521        C  0.16701293  0.19599499  0.68026768     0.06000
C522        C  0.13984339  0.16920189  0.67142895    -0.02600
Br523      Br  0.10024227  0.16618045  0.66639706    -0.02300
H524        H  0.11967664  0.12222715  0.65963105     0.09900
H525        H  0.21586610  0.21494010  0.68824722     0.07900
Br526      Br  0.23335212  0.16815884  0.68174584    -0.02700
C527        C  0.18970602  0.02273390  0.65823372    -0.09400
C528        C  0.16262496  0.02391626  0.66371581     0.06800
C529        C  0.13472847  0.49649787  0.66883745    -0.03100
C530        C  0.13471717  0.46895389  0.67095599    -0.07600
C531        C  0.16198026  0.46780281  0.66682270     0.06000
C532        C  0.18954790  0.49498980  0.65941764    -0.02600
Br533      Br  0.22682195  0.99548917  0.64745381    -0.02300
H534        H  0.21094634  0.04351482  0.65257178     0.09900
H535        H  0.11312483  0.44828898  0.67577342     0.07900
Br536      Br  0.09568639  0.49500198  0.67003880    -0.02700
C537        C  0.15551354  0.00570032  0.75333737    -0.09400
C538        C  0.12545563  0.49371464  0.76585375     0.06800
C539        C  0.11080795  0.51101061  0.76191298    -0.03100
C540        C  0.12138919  0.03354775  0.73839643    -0.07600
C541        C  0.14998613  0.04456014  0.72306349     0.06000
C542        C  0.16881725  0.03281426  0.73456269    -0.02600
Br543      Br  0.21220397  0.05296585  0.72595951    -0.02300
H544        H  0.16825896  0.99380256  0.75731601     0.09900
H545        H  0.10492133  0.03930505  0.73049567     0.07900
Br546      Br  0.07320063  0.50148741  0.78398722    -0.02700
C547        C  0.15859147  0.12519161  0.73769481    -0.09400
C548        C  0.14102718  0.09954504  0.71879693     0.06800
C549        C  0.10893232  0.08713776  0.71938108    -0.03100
C550        C  0.09527462  0.09505599  0.74353179    -0.07600
C551        C  0.11195833  0.12304045  0.75934342     0.06000
C552        C  0.14440992  0.13913521  0.75428965    -0.02600
Br553      Br  0.16999888  0.18203792  0.76146582    -0.02300
H554        H  0.18338353  0.13706844  0.73529616     0.09900
H555        H  0.07062991  0.08114075  0.74659396     0.07900
Br556      Br  0.08257203  0.06078093  0.68644863    -0.02700
C557        C  0.16086678  0.02748482  0.59657321    -0.09400
C558        C  0.17587642  0.05925199  0.60177575     0.06800
C559        C  0.19972181  0.07670135  0.57941258    -0.03100
C560        C  0.21715700  0.06432474  0.56706703    -0.07600
C561        C  0.20643584  0.03285736  0.56911712     0.06000
C562        C  0.17668959  0.01401124  0.58219114    -0.02600
Br563      Br  0.15834429  0.47041332  0.58494941    -0.02300
H564        H  0.13863795  0.01277500  0.60745992     0.09900
H565        H  0.23721743  0.07862589  0.55230747     0.07900
Br566      Br  0.19180279  0.09851820  0.54597944    -0.02700
C567        C  0.19208827  0.16975810  0.58384504    -0.09400
C568        C  0.22389770  0.18274322  0.57813555     0.06800
C569        C  0.23849196  0.16629208  0.58887708    -0.03100
C570        C  0.22216874  0.13974295  0.60750884    -0.07600
C571        C  0.19026356  0.12620189  0.61138131     0.06000
C572        C  0.17498841  0.14026154  0.59677073    -0.02600
Br573      Br  0.13114012  0.11918847  0.59222920    -0.02300
H574        H  0.18014771  0.18193655  0.57718368     0.09900
H575        H  0.23425275  0.12905006  0.61826913     0.07900
Br576      Br  0.27991859  0.17731140  0.57745774    -0.02700
C577        C  0.00869938  0.18587642  0.02590102    -0.09400
C578        C  0.98822487  0.18753167  0.00387139     0.06800
C579        C  0.46932676  0.16183285  0.98568668    -0.03100
C580        C  0.47098913  0.13521146  0.98994340    -0.07600
C581        C  0.99184039  0.13391439  0.01156321     0.06000
C582        C  0.01067400  0.15941129  0.02977281    -0.02600
Br583      Br  0.03894041  0.15888816  0.06036701    -0.02300
H584        H  0.02463640  0.20590884  0.03871546     0.09900
H585        H  0.45664939  0.11569888  0.97544228     0.07900
Br586      Br  0.44201486  0.16226484  0.95376224    -0.02700
C587        C  0.47268962  0.31099757  0.98594632    -0.09400
C588        C  0.99754096  0.30663429  0.99295130     0.06800
C589        C  0.02640341  0.33232360  0.99896224    -0.03100
C590        C  0.02997066  0.36170725  0.99694634    -0.07600
C591        C  0.50510400  0.36605110  0.98870583     0.06000
C592        C  0.47649573  0.34012700  0.98218676    -0.02600
Br593      Br  0.44224701  0.34254787  0.96509657    -0.02300
H594        H  0.45033574  0.29151813  0.98172994     0.09900
H595        H  0.05195414  0.38106710  0.00290518     0.07900
Br596      Br  0.06068096  0.32814138  0.01280885    -0.02700
C597        C  0.02649569  0.32421313  0.90064047    -0.09400
C598        C  0.05801993  0.33446037  0.89727583     0.06800
C599        C  0.07039968  0.31824375  0.91356377    -0.03100
C600        C  0.05272319  0.29588445  0.93644892    -0.07600
C601        C  0.02151416  0.28653259  0.94105754     0.06000
C602        C  0.00793284  0.29935158  0.92083388    -0.02600
Br603      Br  0.46426165  0.28289631  0.91774750    -0.02300
H604        H  0.01629783  0.33596848  0.88820394     0.09900
H605        H  0.06358623  0.28599063  0.95098871     0.07900
Br606      Br  0.11176042  0.32644165  0.90631710    -0.02700
C607        C  0.03610774  0.22459540  0.89269580    -0.09400
C608        C  0.05409735  0.21221766  0.90426510     0.06800
C609        C  0.05283283  0.20599970  0.93743240    -0.03100
C610        C  0.03984194  0.21779777  0.95808094    -0.07600
C611        C  0.01893410  0.22658213  0.94691330     0.06000
C612        C  0.01545525  0.22741082  0.91327668    -0.02600
Br613      Br  0.98134217  0.22831004  0.89389469    -0.02300
H614        H  0.03714831  0.23130200  0.86780510     0.09900
H615        H  0.04533885  0.21881269  0.98307385     0.07900
Br616      Br  0.06574392  0.17906751  0.95556965    -0.02700
C617        C  0.16790521  0.14261697  0.99292445    -0.09400
C618        C  0.14021657  0.14292664  0.99800761     0.06800
C619        C  0.14190457  0.17121280  0.00382475    -0.03100
C620        C  0.17006317  0.19815915  0.00208814    -0.07600
C621        C  0.19762556  0.19784201  0.99775102     0.06000
C622        C  0.19640866  0.16970715  0.99294639    -0.02600
Br623      Br  0.23278336  0.16782467  0.98281137    -0.02300
H624        H  0.16740236  0.12132525  0.98845123     0.09900
H625        H  0.17066086  0.21969383  0.00527637     0.07900
Br626      Br  0.10782144  0.17499186  0.01860675    -0.02700
C627        C  0.31149190  0.33589165  0.00779085    -0.09400
C628        C  0.31176287  0.31249375  0.99037515     0.06800
C629        C  0.33991200  0.31593546  0.97913523    -0.03100
C630        C  0.36706538  0.34256238  0.98573488    -0.07600
C631        C  0.36701282  0.36545633  0.00421169     0.06000
C632        C  0.33886195  0.36220271  0.01498661    -0.02600
Br633      Br  0.33655563  0.39169059  0.04152605    -0.02300
H634        H  0.28995724  0.33289884  0.01719031     0.09900
H635        H  0.38842729  0.34534692  0.97644238     0.07900
Br636      Br  0.34293403  0.28418524  0.95682117    -0.02700
C637        C  0.25291365  0.28620586  0.90330218    -0.09400
C638        C  0.27176027  0.29350870  0.93089049     0.06800
C639        C  0.29818942  0.32267014  0.92823753    -0.03100
C640        C  0.29485179  0.34638837  0.91557598    -0.07600
C641        C  0.27356916  0.34024870  0.89116525     0.06000
C642        C  0.25304100  0.30958789  0.88398275    -0.02600
Br643      Br  0.22395945  0.29903555  0.85010554    -0.02300
H644        H  0.23757446  0.26299570  0.89683469     0.09900
H645        H  0.31367337  0.36949710  0.91802515     0.07900
Br646      Br  0.33196363  0.32526033  0.90372236    -0.02700
C647        C  0.19332947  0.20951102  0.93006597    -0.09400
C648        C  0.20728423  0.23816211  0.94458602     0.06800
C649        C  0.19416396  0.25698868  0.93960580    -0.03100
C650        C  0.17019617  0.24844257  0.91777184    -0.07600
C651        C  0.15484078  0.21886609  0.90502892     0.06000
C652        C  0.16522223  0.19848221  0.91445295    -0.02600
Br653      Br  0.13975955  0.15486126  0.91309686    -0.02300
H654        H  0.20250064  0.19434062  0.93395977     0.09900
H655        H  0.16249133  0.26457746  0.91217040     0.07900
Br656      Br  0.20810709  0.29449558  0.96184120    -0.02700
C657        C  0.32577804  0.01250556  0.96942896    -0.09400
C658        C  0.30733414  0.99750289  0.99657171     0.06800
C659        C  0.31632489  0.48112573  0.01737190    -0.03100
C660        C  0.34368344  0.48090886  0.01147388    -0.07600
C661        C  0.36275867  0.99710686  0.98531120     0.06000
C662        C  0.35369074  0.01303487  0.96412123    -0.02600
Br663      Br  0.37814881  0.03492939  0.92737426    -0.02300
H664        H  0.31848951  0.02405225  0.95244361     0.09900
H665        H  0.35037674  0.46832425  0.02777045     0.07900
Br666      Br  0.29102295  0.45680180  0.05272420    -0.02700
C667        C  0.18967040  0.02067202  0.99962257    -0.09400
C668        C  0.19149693  0.99636702  0.01412110     0.06800
C669        C  0.16631677  0.47447118  0.03238794    -0.03100
C670        C  0.14054070  0.47801532  0.03707566    -0.07600
C671        C  0.13919358  0.00283889  0.02307459     0.06000
C672        C  0.16360357  0.02359386  0.00314961    -0.02600
Br673      Br  0.16106239  0.05383890  0.97667801    -0.02300
H674        H  0.20843921  0.03711958  0.98463905     0.09900
H675        H  0.12124387  0.46102187  0.05110817     0.07900
Br676      Br  0.16549679  0.43881414  0.04998592    -0.02700
C677        C  0.18653428  0.47775661  0.94314828    -0.09400
C678        C  0.19831640  0.46215341  0.96129644     0.06800
C679        C  0.18515307  0.43052563  0.95694931    -0.03100
C680        C  0.16377226  0.41629868  0.93257280    -0.07600
C681        C  0.15133136  0.43176004  0.91504031     0.06000
C682        C  0.16145151  0.46237174  0.92277605    -0.02600
Br683      Br  0.13945898  0.48313971  0.91060940    -0.02300
H684        H  0.19633906  0.50202288  0.94520860     0.09900
H685        H  0.15553675  0.39238444  0.92860421     0.07900
Br686      Br  0.19260257  0.90490329  0.98571347    -0.02700
C687        C  0.26501239  0.44059866  0.96349321    -0.09400
C688        C  0.25784620  0.46308531  0.95402928     0.06800
C689        C  0.26021732  0.47126105  0.92118740    -0.03100
C690        C  0.26827024  0.45592994  0.89865775    -0.07600
C691        C  0.27690044  0.43447080  0.90862464     0.06000
C692        C  0.27617472  0.42782470  0.94174567    -0.02600
Br693      Br  0.29287621  0.40387329  0.95967079    -0.02300
H694        H  0.26381561  0.43435742  0.98859060     0.09900
H695        H  0.26871911  0.46145714  0.87340569     0.07900
Br696      Br  0.25578197  0.00495545  0.90625969    -0.02700
C697        C  0.41434533  0.25112207  0.07281881    -0.09400
C698        C  0.43011071  0.27607081  0.09324809     0.06800
C699        C  0.46194364  0.29624000  0.08635825    -0.03100
C700        C  0.47745009  0.28772955  0.06455168    -0.07600
C701        C  0.46081909  0.26376067  0.04377643     0.06000
C702        C  0.42872541  0.24844682  0.04562501    -0.02600
Br703      Br  0.40415475  0.23226392  0.00816390    -0.02300
H704        H  0.39003389  0.23541130  0.07544211     0.09900
H705        H  0.00211299  0.30166085  0.06152879     0.07900
Br706      Br  0.98436967  0.33820492  0.09876465    -0.02700
C707        C  0.32743815  0.27749906  0.03830850    -0.09400
C708        C  0.29919220  0.27512320  0.04569937     0.06800
C709        C  0.29561887  0.28411225  0.07670516    -0.03100
C710        C  0.31947893  0.29297043  0.09945513    -0.07600
C711        C  0.34859240  0.29752549  0.09012421     0.06000
C712        C  0.35281140  0.29326124  0.05752616    -0.02600
Br713      Br  0.39264132  0.30634457  0.03836637    -0.02300
H714        H  0.33013660  0.26805756  0.01662636     0.09900
H715        H  0.31511436  0.29595726  0.12415086     0.07900
Br716      Br  0.25936868  0.28500271  0.08902740    -0.02700
C717        C  0.31614766  0.47964564  0.32572946    -0.09400
C718        C  0.34425045  0.47984909  0.32436955     0.06800
C719        C  0.37143493  0.50844305  0.32111247    -0.03100
C720        C  0.36969608  0.03522534  0.31641842    -0.07600
C721        C  0.34146616  0.03500631  0.31889622     0.06000
C722        C  0.31493649  0.00667400  0.32624852    -0.02600
Br723      Br  0.27822336  0.00279399  0.34488201    -0.02300
H724        H  0.29502148  0.45825059  0.32929228     0.09900
H725        H  0.39089473  0.05663893  0.31317466     0.07900
Br726      Br  0.41146120  0.51311807  0.32756754    -0.02700
C727        C  0.35384537  0.32848379  0.37067092    -0.09400
C728        C  0.33252815  0.30393672  0.35253691     0.06800
C729        C  0.31783103  0.30969432  0.32683408    -0.03100
C730        C  0.32257414  0.33902864  0.32139945    -0.07600
C731        C  0.34262557  0.36346711  0.34044145     0.06000
C732        C  0.35908325  0.35811720  0.36464923    -0.02600
Br733      Br  0.38963512  0.39074849  0.38908307    -0.02300
H734        H  0.36661589  0.32462847  0.38935433     0.09900
H735        H  0.30917252  0.34235735  0.30327078     0.07900
Br736      Br  0.29200787  0.27861679  0.29745495    -0.02700
C737        C  0.33059120  0.46967088  0.39600620    -0.09400
C738        C  0.31421586  0.44079460  0.38168313     0.06800
C739        C  0.28252449  0.42335551  0.38858131    -0.03100
C740        C  0.26924151  0.43258718  0.41215427    -0.07600
C741        C  0.28417302  0.46249030  0.42368933     0.06000
C742        C  0.31530469  0.48155909  0.41435306    -0.02600
Br743      Br  0.33653374  0.02475550  0.42060313    -0.02300
H744        H  0.35468018  0.48428633  0.39007463     0.09900
H745        H  0.24550950  0.41745913  0.41861831     0.07900
Br746      Br  0.25453977  0.39191107  0.36089303    -0.02700
C747        C  0.28515486  0.35004633  0.37175033    -0.09400
C748        C  0.30785253  0.37768419  0.38423208     0.06800
C749        C  0.31291829  0.37882039  0.41761264    -0.03100
C750        C  0.29560514  0.35252234  0.43712645    -0.07600
C751        C  0.27563651  0.32398070  0.42359787     0.06000
C752        C  0.27160280  0.32321067  0.38996249    -0.02600
Br753      Br  0.25013369  0.28616177  0.36611373    -0.02300
H754        H  0.27997289  0.34882400  0.34646630     0.09900
H755        H  0.29828219  0.35438149  0.46284910     0.07900
Br756      Br  0.34368557  0.41486954  0.43763094    -0.02700
C757        C  0.40301032  0.40968987  0.29158043    -0.09400
C758        C  0.37250684  0.40157794  0.28583845     0.06800
C759        C  0.35746350  0.38259013  0.25998266    -0.03100
C760        C  0.37218524  0.36972332  0.24276502    -0.07600
C761        C  0.40406753  0.38045579  0.24588654     0.06000
C762        C  0.41964958  0.40269598  0.26984965    -0.02600
Br763      Br  0.46337961  0.42864651  0.27300220    -0.02300
H764        H  0.41479136  0.42419780  0.31157069     0.09900
H765        H  0.35828017  0.35142968  0.22687049     0.07900
Br766      Br  0.31728951  0.37406714  0.24695402    -0.02700
C767        C  0.16601179  0.47763899  0.32347742    -0.09400
C768        C  0.13952710  0.47677419  0.33574816     0.06800
C769        C  0.14223615  0.00315452  0.34988469    -0.03100
C770        C  0.17126795  0.02876970  0.35357857    -0.07600
C771        C  0.19782275  0.02951792  0.34155836     0.06000
C772        C  0.19456940  0.00414358  0.32461972    -0.02600
Br773      Br  0.22620426  0.00598563  0.29726962    -0.02300
H774        H  0.16411007  0.45796041  0.31142845     0.09900
H775        H  0.17299591  0.04854681  0.36521694     0.07900
Br776      Br  0.10762058  0.00654536  0.36348601    -0.02700
C777        C  0.46902009  0.33682061  0.32514399    -0.09400
C778        C  0.46737015  0.30845258  0.32067331     0.06800
C779        C  0.49523317  0.30761052  0.31935337    -0.03100
C780        C  0.02319161  0.33418188  0.32349226    -0.07600
C781        C  0.02485072  0.36247194  0.32679486     0.06000
C782        C  0.49733454  0.36355678  0.32820144    -0.02600
Br783      Br  0.49719726  0.40056971  0.33685113    -0.02300
H784        H  0.44819618  0.33825407  0.32707917     0.09900
H785        H  0.04402596  0.33284063  0.32288104     0.07900
Br786      Br  0.49811072  0.27194319  0.31048401    -0.02700
C787        C  0.03842760  0.36243640  0.39870592    -0.09400
C788        C  0.06503082  0.37073643  0.38005151     0.06800
C789        C  0.07715982  0.35070586  0.38087547    -0.03100
C790        C  0.06520430  0.32571512  0.40233379    -0.07600
C791        C  0.03747239  0.31609347  0.41943583     0.06000
C792        C  0.02348605  0.33454185  0.41617011    -0.02600
Br793      Br  0.48179375  0.32075165  0.42936654    -0.02300
H794        H  0.02723275  0.37605274  0.39666206     0.09900
H795        H  0.07625343  0.31192833  0.40314063     0.07900
Br796      Br  0.10389098  0.35050358  0.34805928    -0.02700
C797        C  0.14749475  0.42071750  0.37547105    -0.09400
C798        C  0.12589211  0.42975508  0.38190046     0.06800
C799        C  0.13209879  0.45021641  0.40682179    -0.03100
C800        C  0.16104943  0.46402041  0.42135537    -0.07600
C801        C  0.18106464  0.45189295  0.41823770     0.06000
C802        C  0.17246648  0.42839945  0.39547387    -0.02600
Br803      Br  0.19070315  0.40312183  0.39072531    -0.02300
H804        H  0.14540588  0.40800403  0.35432581     0.09900
H805        H  0.16710075  0.48367122  0.43584221     0.07900
Br806      Br  0.10111024  0.45813033  0.42318545    -0.02700
C807        C  0.03664979  0.41801497  0.25346304    -0.09400
C808        C  0.04892618  0.40188499  0.26964887     0.06800
C809        C  0.03977296  0.37241941  0.25841185    -0.03100
C810        C  0.51098100  0.35579053  0.24381944    -0.07600
C811        C  0.49584818  0.37120887  0.23239706     0.06000
C812        C  0.01214916  0.40321919  0.23259774    -0.02600
Br813      Br  0.00140585  0.42740119  0.20512592    -0.02300
H814        H  0.04448712  0.44120027  0.25681065     0.09900
H815        H  0.50072686  0.33136888  0.24232189     0.07900
Br816      Br  0.56677496  0.35568469  0.26113351    -0.02700
C817        C  0.48252245  0.20876305  0.07775967    -0.09400
C818        C  0.46261496  0.20789661  0.05351540     0.06800
C819        C  0.43107337  0.18754396  0.05806246    -0.03100
C820        C  0.42057286  0.17253219  0.08755980    -0.07600
C821        C  0.43988616  0.16476790  0.10509425     0.06000
C822        C  0.47212948  0.18493771  0.10095283    -0.02600
Br823      Br  0.50388062  0.17990603  0.12081658    -0.02300
H824        H  0.00682462  0.22505676  0.07573009     0.09900
H825        H  0.39590211  0.15941556  0.09132302     0.07900
Br826      Br  0.40377703  0.16916020  0.02306475    -0.02700
C827        C  0.30100061  0.02465308  0.08020761    -0.09400
C828        C  0.30120632  0.03236699  0.04774429     0.06800
C829        C  0.32878295  0.05593403  0.03449453    -0.03100
C830        C  0.35603534  0.06758448  0.05190703    -0.07600
C831        C  0.35590534  0.06065009  0.08493128     0.06000
C832        C  0.32708226  0.04021869  0.09931959    -0.02600
Br833      Br  0.32021850  0.03509557  0.14487662    -0.02300
H834        H  0.28051349  0.00649679  0.09096961     0.09900
H835        H  0.37718646  0.08357178  0.03970586     0.07900
Br836      Br  0.32978384  0.07510830  0.99404722    -0.02700
C837        C  0.40219935  0.46889378  0.26717874    -0.09400
C838        C  0.37110006  0.45862844  0.27425665     0.06800
C839        C  0.35490303  0.46759836  0.25301151    -0.03100
C840        C  0.37113127  0.99067685  0.22977906    -0.07600
C841        C  0.40285159  0.00223219  0.22440213     0.06000
C842        C  0.41698645  0.48787281  0.24079876    -0.02600
Br843      Br  0.45727975  0.49481642  0.22950667    -0.02300
H844        H  0.41593152  0.46375506  0.28311450     0.09900
H845        H  0.35910735  0.00038366  0.21698253     0.07900
Br846      Br  0.31097689  0.44908588  0.25454492    -0.02700
C847        C  0.26437061  0.20665729  0.05718315    -0.09400
C848        C  0.24242071  0.21543331  0.04963781     0.06800
C849        C  0.21515831  0.20249813  0.06832436    -0.03100
C850        C  0.20765739  0.17717597  0.08821650    -0.07600
C851        C  0.22958289  0.16840807  0.09608058     0.06000
C852        C  0.25924533  0.18553863  0.08195391    -0.02600
Br853      Br  0.29434001  0.18294118  0.09652683    -0.02300
H854        H  0.28590709  0.21650546  0.04405653     0.09900
H855        H  0.18451873  0.16472106  0.09788881     0.07900
Br856      Br  0.18923377  0.22036674  0.07150881    -0.02700
C857        C  0.24335169  0.05930388  0.04210916    -0.09400
C858        C  0.24187500  0.03289531  0.05505706     0.06800
C859        C  0.23143055  0.02460198  0.08712201    -0.03100
C860        C  0.22492063  0.04381793  0.10566793    -0.07600
C861        C  0.22232227  0.06799392  0.09139997     0.06000
C862        C  0.23057850  0.07445525  0.05833415    -0.02600
Br863      Br  0.22072164  0.09984803  0.03157005    -0.02300
H864        H  0.25064529  0.06570096  0.01738351     0.09900
H865        H  0.22051270  0.03874525  0.13102165     0.07900
Br866      Br  0.22193363  0.48603607  0.10602377    -0.02700
C867        C  0.09921097  0.01073341  0.25833297    -0.09400
C868        C  0.12725871  0.02111695  0.24156399     0.06800
C869        C  0.14229016  0.50375268  0.24489697    -0.03100
C870        C  0.12803356  0.47590359  0.26219359    -0.07600
C871        C  0.10132857  0.46704022  0.28074128     0.06000
C872        C  0.08779570  0.48580008  0.27962864    -0.02600
Br873      Br  0.05297798  0.47824293  0.30594577    -0.02300
H874        H  0.08699937  0.02339750  0.25660384     0.09900
H875        H  0.13946830  0.46251016  0.26364014     0.07900
Br876      Br  0.18425248  0.51900046  0.23186123    -0.02700
C877        C  0.13903172  0.14511151  0.34066608    -0.09400
C878        C  0.14125688  0.17375960  0.33629317     0.06800
C879        C  0.17021319  0.19946117  0.33028518    -0.03100
C880        C  0.19615699  0.19605535  0.32820809    -0.07600
C881        C  0.19379364  0.16713051  0.33094828     0.06000
C882        C  0.16466113  0.14138903  0.33728768    -0.02600
Br883      Br  0.15756984  0.10049118  0.34204509    -0.02300
H884        H  0.11678675  0.12526552  0.34547287     0.09900
H885        H  0.21824621  0.21614771  0.32346108     0.07900
Br886      Br  0.17527840  0.23905462  0.32169689    -0.02700
C887        C  0.50167553  0.20743316  0.33814401    -0.09400
C888        C  0.47495406  0.18275083  0.32616109     0.06800
C889        C  0.47839883  0.16528317  0.30265564    -0.03100
C890        C  0.50735736  0.16870193  0.29734338    -0.07600
C891        C  0.03203330  0.18553806  0.31823370     0.06000
C892        C  0.03032935  0.20973541  0.33276133    -0.02600
Br893      Br  0.06531904  0.24821502  0.34001497    -0.02300
H894        H  0.50036709  0.22461008  0.35213255     0.09900
H895        H  0.51009993  0.16016500  0.27521933     0.07900
Br896      Br  0.44575587  0.13978045  0.27431197    -0.02700
C897        C  0.02283766  0.17191956  0.38860417    -0.09400
C898        C  0.05535898  0.18695504  0.38720736     0.06800
C899        C  0.07001123  0.20672127  0.41278287    -0.03100
C900        C  0.05667789  0.22316065  0.42490983    -0.07600
C901        C  0.02524560  0.21278958  0.42077344     0.06000
C902        C  0.00755838  0.18461670  0.40545059    -0.02600
Br903      Br  0.46342660  0.16412161  0.40381691    -0.02300
H904        H  0.00936308  0.15277979  0.37353698     0.09900
H905        H  0.06951341  0.24124911  0.44159426     0.07900
Br906      Br  0.08461418  0.19203246  0.44755924    -0.02700
C907        C  0.15973839  0.24580230  0.41821689    -0.09400
C908        C  0.17482414  0.23073878  0.43083314     0.06800
C909        C  0.16344716  0.20007731  0.42164884    -0.03100
C910        C  0.13665965  0.18526405  0.40315508    -0.07600
C911        C  0.12457075  0.20172536  0.38690846     0.06000
C912        C  0.13764672  0.23294442  0.39425859    -0.02600
Br913      Br  0.13015147  0.26105691  0.37054465    -0.02300
H914        H  0.16734258  0.26914247  0.42456317     0.09900
H915        H  0.12736492  0.16132068  0.39844044     0.07900
Br916      Br  0.18603052  0.17870865  0.42721777    -0.02700
C917        C  0.48807261  0.09820010  0.27415116    -0.09400
C918        C  0.49128731  0.10409560  0.24086175     0.06800
C919        C  0.02079934  0.12521077  0.22844700    -0.03100
C920        C  0.04513640  0.14211333  0.24945589    -0.07600
C921        C  0.04100764  0.13736015  0.28287083     0.06000
C922        C  0.01263349  0.11353273  0.29484633    -0.02600
Br923      Br  0.50481950  0.10303451  0.33964810    -0.02300
H924        H  0.46596783  0.08186411  0.28445837     0.09900
H925        H  0.06696927  0.15971285  0.23978260     0.07900
Br926      Br  0.02966352  0.13128193  0.18331931    -0.02700
C927        C  0.13192389  0.16401623  0.26667673    -0.09400
C928        C  0.10352016  0.14577727  0.28267698     0.06800
C929        C  0.08921496  0.11396436  0.27868186    -0.03100
C930        C  0.10137242  0.10185495  0.25700145    -0.07600
C931        C  0.13122716  0.11944639  0.24388507     0.06000
C932        C  0.14724500  0.15088448  0.25082404    -0.02600
Br933      Br  0.19116171  0.17566785  0.24629000    -0.02300
H934        H  0.14411655  0.18835195  0.27026716     0.09900
H935        H  0.08866792  0.07750958  0.25329093     0.07900
Br936      Br  0.05777013  0.08493381  0.30685282    -0.02700
C937        C  0.11218059  0.67500513  0.33400855     0.02100
C938        C  0.09283323  0.66006158  0.30778545     0.02100
C939        C  0.06434540  0.65940574  0.30527284     0.02100
C940        C  0.05692700  0.67696779  0.32670892     0.02100
C941        C  0.07240776  0.68469334  0.35749679     0.02100
C942        C  0.10242590  0.68711292  0.35938470     0.02100
C943        C  0.14498700  0.60248042  0.22733666    -0.11100
C944        C  0.13928637  0.57490666  0.24191320    -0.04900
C945        C  0.14135601  0.55206962  0.22519818    -0.11000
C946        C  0.15495412  0.55943075  0.19396001     0.09900
C947        C  0.16761027  0.58975217  0.18178151    -0.02800
C948        C  0.16060598  0.61058029  0.19719155     0.09700
C949        C  0.16957445  0.63865266  0.18184256    -0.12800
C950        C  0.19060937  0.64888199  0.15651900    -0.12800
C951        C  0.19906720  0.62935138  0.14151413     0.09700
C952        C  0.18614606  0.59885233  0.15332072    -0.02800
C953        C  0.15541669  0.53761540  0.17385105    -0.13000
C954        C  0.17297194  0.54635816  0.14550588    -0.13000
C955        C  0.19117289  0.57732131  0.13648763     0.09900
C956        C  0.21330911  0.58767848  0.11079377    -0.11000
C957        C  0.22861125  0.61895081  0.10296577    -0.04900
C958        C  0.21982901  0.63925111  0.11501948    -0.11100
H959        H  0.16176819  0.65378727  0.19013669     0.07200
H960        H  0.20033091  0.67250907  0.14921579     0.07200
H961        H  0.14251957  0.51359826  0.18010792     0.07300
H962        H  0.17189894  0.52847820  0.13084195     0.07300
H963        H  0.13060237  0.57015706  0.26637076     0.03800
H964        H  0.24658493  0.62729173  0.08510947     0.03800
C965        C  0.46407864  0.58523406  0.22015410    -0.11100
C966        C  0.44785649  0.55393293  0.22694661    -0.04900
C967        C  0.42219799  0.53341294  0.20953369    -0.11000
C968        C  0.41399183  0.54456437  0.18206641     0.09900
C969        C  0.42858898  0.57654649  0.17590395    -0.02800
C970        C  0.45248152  0.59701385  0.19616191     0.09700
C971        C  0.46262547  0.62833411  0.19297928    -0.12800
C972        C  0.45168030  0.63954879  0.16850391    -0.12800
C973        C  0.43230489  0.62028054  0.14480845     0.09700
C974        C  0.41884779  0.58813508  0.14982487    -0.02800
C975        C  0.39206543  0.52474250  0.16041968    -0.13000
C976        C  0.38341067  0.53603589  0.13408297    -0.13000
C977        C  0.39524499  0.56752093  0.12928770     0.09900
C978        C  0.38467800  0.57911611  0.10417103    -0.11000
C979        C  0.40159636  0.61029696  0.09712524    -0.04900
C980        C  0.42504866  0.63169924  0.11671874    -0.11100
H981        H  0.47885286  0.64436962  0.20967139     0.07200
H982        H  0.45911682  0.66363747  0.16777593     0.07200
H983        H  0.38186290  0.50029039  0.16341631     0.07300
H984        H  0.36693117  0.51984144  0.11767173     0.07300
H985        H  0.45469180  0.54553607  0.24753440     0.03800
H986        H  0.39547877  0.61825351  0.07580550     0.03800
C987        C  0.10964545  0.94763896  0.33344571     0.02100
C988        C  0.09157627  0.94181835  0.30538978     0.02100
C989        C  0.06571827  0.91218576  0.30117456     0.02100
C990        C  0.05564998  0.89077472  0.32766447     0.02100
C991        C  0.07472576  0.89577702  0.35474820     0.02100
C992        C  0.10228357  0.92429994  0.35711784     0.02100
C993        C  0.34421254  0.95006466  0.32893537     0.02100
C994        C  0.35678266  0.93971386  0.30437677     0.02100
C995        C  0.35669985  0.91167616  0.30897109     0.02100
C996        C  0.34325051  0.89346576  0.33679019     0.02100
C997        C  0.32824175  0.90206009  0.36006404     0.02100
C998        C  0.32941835  0.93095475  0.35680637     0.02100
C999        C  0.41982878  0.86666647  0.22663782    -0.11100
C1000       C  0.44444601  0.86500231  0.24099516    -0.04900
C1001       C  0.46258041  0.85584377  0.22417685    -0.11000
C1002       C  0.45007816  0.83793380  0.19713213     0.09900
C1003       C  0.42342919  0.83620759  0.18309114    -0.02800
C1004       C  0.41049162  0.85348239  0.19558524     0.09700
C1005       C  0.38941361  0.85714536  0.17611368    -0.12800
C1006       C  0.37698649  0.83973186  0.14864181    -0.12800
C1007       C  0.38589505  0.81868046  0.13917391     0.09700
C1008       C  0.41068610  0.81831226  0.15558807    -0.02800
C1009       C  0.46284933  0.82115954  0.18430347    -0.13000
C1010       C  0.44875220  0.80159733  0.15925439    -0.13000
C1011       C  0.42380965  0.80109761  0.14356701     0.09900
C1012       C  0.41169470  0.78388660  0.11591935    -0.11000
C1013       C  0.38254924  0.77807804  0.10658063    -0.04900
C1014       C  0.37183112  0.79824002  0.11354395    -0.11100
H1015       H  0.38255813  0.87376428  0.18162212     0.02700
H1016       H  0.36025257  0.84276134  0.13510151     0.07200
H1017       H  0.48313878  0.82195305  0.19395234     0.07300
H1018       H  0.45828890  0.78766026  0.15132726     0.07300
H1019       H  0.45124914  0.87252156  0.26514124     0.03800
H1020       H  0.37014016  0.76118434  0.08886070     0.03800
C1021       C  0.27745090  0.49712913  0.00141359     0.02100
C1022       C  0.27395308  0.51346388  0.02703665     0.02100
C1023       C  0.24516008  0.51213917  0.03190983     0.02100
C1024       C  0.22049368  0.49515879  0.01045166     0.02100
C1025       C  0.22418118  0.97926148  0.98441876     0.02100
C1026       C  0.25294517  0.98049279  0.97994580     0.02100
C1027       C  0.28313960  0.78276222  0.98978486     0.02100
C1028       C  0.27562157  0.76502458  0.01907997     0.02100
C1029       C  0.24806892  0.73674286  0.02140897     0.02100
C1030       C  0.22712062  0.72760298  0.99545325     0.02100
C1031       C  0.23340252  0.74662286  0.96728983     0.02100
C1032       C  0.26293261  0.77370299  0.96252553     0.02100
C1033       C  0.98855151  0.71702298  0.99896031     0.02100
C1034       C  0.47545104  0.72659357  0.02310861     0.02100
C1035       C  0.47664197  0.75505504  0.01961268     0.02100
C1036       C  0.99269639  0.77492639  0.99351168     0.02100
C1037       C  0.00437878  0.76484835  0.96825647     0.02100
C1038       C  0.00261420  0.73576078  0.97096717     0.02100
C1039       C  0.16367989  0.55389552  0.66308396     0.02100
C1040       C  0.17122473  0.57198113  0.63371852     0.02100
C1041       C  0.17493904  0.60199252  0.63634525     0.02100
C1042       C  0.16663536  0.61109657  0.66513913     0.02100
C1043       C  0.15588499  0.59147028  0.69228936     0.02100
C1044       C  0.15729842  0.56406121  0.69263156     0.02100
C1045       C  0.12624812  0.70941696  0.88564044    -0.11100
C1046       C  0.10565059  0.71837171  0.89693724    -0.04900
C1047       C  0.07646459  0.70811162  0.88385628    -0.11000
C1048       C  0.06933435  0.69206118  0.85471918     0.09900
C1049       C  0.09004556  0.68312474  0.84202550    -0.02800
C1050       C  0.11824489  0.69130911  0.85774781     0.09700
C1051       C  0.13726245  0.68079529  0.84517340    -0.12800
C1052       C  0.12711854  0.65953060  0.82096312    -0.12800
C1053       C  0.10115697  0.65345186  0.80302254     0.09700
C1054       C  0.08211487  0.66521101  0.81387096    -0.02800
C1055       C  0.04251165  0.68482328  0.83760364    -0.13000
C1056       C  0.03725630  0.67138317  0.80791200    -0.13000
C1057       C  0.05493505  0.65883638  0.79700736     0.09900
C1058       C  0.04618619  0.63998326  0.76992012    -0.11000
C1059       C  0.06611878  0.62987463  0.75932060    -0.04900
C1060       C  0.09351296  0.63608280  0.77465419    -0.11100
H1061       H  0.15977401  0.68781101  0.85468586     0.07200
H1062       H  0.14070651  0.64889876  0.81563403     0.07200
H1063       H  0.02509180  0.68946552  0.84620696     0.07300
H1064       H  0.01799140  0.66948818  0.79444290     0.07300
H1065       H  0.11129289  0.73169058  0.91847669     0.03800
H1066       H  0.05990138  0.61638100  0.73814070     0.03800
C1067       C  0.07893197  0.86516398  0.88286123    -0.11100
C1068       C  0.10249009  0.88537313  0.90273606    -0.04900
C1069       C  0.12554875  0.91403071  0.89211839    -0.11000
C1070       C  0.12298195  0.92416001  0.86083272     0.09900
C1071       C  0.09647558  0.90591781  0.84210003    -0.02800
C1072       C  0.07516711  0.87572157  0.85232081     0.09700
C1073       C  0.05114844  0.85726674  0.83157110    -0.12800
C1074       C  0.04555106  0.86949262  0.80366800    -0.12800
C1075       C  0.06374088  0.90050369  0.79536535     0.09700
C1076       C  0.09120854  0.91805492  0.81321673    -0.02800
C1077       C  0.14582300  0.95201658  0.84775086    -0.13000
C1078       C  0.14044540  0.96431494  0.82008125    -0.13000
C1079       C  0.11297645  0.94810864  0.80300900     0.09900
C1080       C  0.10636572  0.96121424  0.77632678    -0.11000
C1081       C  0.07845127  0.94423873  0.76026082    -0.04900
C1082       C  0.05610566  0.91447721  0.76943913    -0.11100
H1083       H  0.03603677  0.83335009  0.83701797     0.07200
H1084       H  0.02636964  0.85461412  0.78895957     0.07200
H1085       H  0.16756649  0.96529740  0.85959429     0.07300
H1086       H  0.15788249  0.98700294  0.81275034     0.07300
H1087       H  0.10316253  0.87820826  0.92723580     0.03800
H1088       H  0.07355666  0.95567931  0.74092709     0.03800
C1089       C  0.44061201  0.61107743  0.66073798     0.02100
C1090       C  0.43719455  0.59417132  0.68983983     0.02100
C1091       C  0.40883105  0.56748951  0.69746353     0.02100
C1092       C  0.38449277  0.55683304  0.67469814     0.02100
C1093       C  0.38743317  0.57355569  0.64580015     0.02100
C1094       C  0.41531724  0.60118235  0.63940787     0.02100
C1095       C  0.44933891  0.84102585  0.66904130     0.02100
C1096       C  0.44403938  0.85867932  0.69190310     0.02100
C1097       C  0.41564939  0.85855607  0.69141818     0.02100
C1098       C  0.39467246  0.84399293  0.66575573     0.02100
C1099       C  0.40026482  0.82704348  0.64204960     0.02100
C1100       C  0.42811885  0.82564641  0.64360289     0.02100
C1101       C  0.28427006  0.91716140  0.88483697    -0.11100
C1102       C  0.26783204  0.88530180  0.88821205    -0.04900
C1103       C  0.27701156  0.86700849  0.87243545    -0.11000
C1104       C  0.29920752  0.87997738  0.84753534     0.09900
C1105       C  0.31531059  0.91200136  0.84222397    -0.02800
C1106       C  0.30858025  0.93087752  0.86169655     0.09700
C1107       C  0.32717328  0.96267467  0.85830070    -0.12800
C1108       C  0.35031797  0.97563025  0.83486893    -0.12800
C1109       C  0.35599733  0.95740654  0.81391353     0.09700
C1110       C  0.33938154  0.92517886  0.81870556    -0.02800
C1111       C  0.30597820  0.86157898  0.82823848    -0.13000
C1112       C  0.32828135  0.87425147  0.80412462    -0.13000
C1113       C  0.34650757  0.90600579  0.79995710     0.09900
C1114       C  0.37119625  0.91926912  0.77730399    -0.11000
C1115       C  0.38647534  0.95109767  0.77282880    -0.04900
C1116       C  0.37848240  0.97041998  0.78899454    -0.11100
H1117       H  0.32429243  0.97795117  0.87390443     0.07200
H1118       H  0.36429655  0.00020795  0.83379752     0.07200
H1119       H  0.29333427  0.83702157  0.83107642     0.07300
H1120       H  0.33065437  0.85864338  0.78865366     0.07300
H1121       H  0.25025652  0.87483141  0.90677209     0.03800
H1122       H  0.40420206  0.96089174  0.75460185     0.03800
C1123       C  0.01281585  0.73196603  0.43387686    -0.11100
C1124       C  0.02368465  0.76105911  0.41999534    -0.04900
C1125       C  0.02229688  0.78483089  0.43598229    -0.11000
C1126       C  0.00859909  0.77820016  0.46735129     0.09900
C1127       C  0.99356669  0.74762020  0.47960327    -0.02800
C1128       C  0.99579237  0.72460153  0.46275561     0.09700
C1129       C  0.98080903  0.69474058  0.47522562    -0.12800
C1130       C  0.46134665  0.68683057  0.50151792    -0.12800
C1131       C  0.46174427  0.70922527  0.52110625     0.09700
C1132       C  0.47777860  0.74019628  0.50980739    -0.02800
C1133       C  0.01058586  0.80112058  0.48753898    -0.13000
C1134       C  0.49563941  0.79401357  0.51743302    -0.13000
C1135       C  0.47819117  0.76364819  0.52858106     0.09900
C1136       C  0.46231493  0.75591881  0.55858054    -0.11000
C1137       C  0.44812552  0.72556084  0.56931497    -0.04900
C1138       C  0.44710661  0.70179853  0.55172719    -0.11100
H1139       H  0.98289803  0.67671643  0.46426496     0.07200
H1140       H  0.44634597  0.66284143  0.50627359     0.07200
H1141       H  0.02404843  0.82490584  0.48051632     0.07300
H1142       H  0.49835459  0.81267325  0.53199430     0.07300
H1143       H  0.03478606  0.76545525  0.39670479     0.03800
H1144       H  0.43763356  0.72034263  0.59275036     0.03800
C1145       C  0.20499614  0.74958990  0.44808704    -0.11100
C1146       C  0.22507759  0.77865937  0.43531075    -0.04900
C1147       C  0.25605527  0.79585553  0.44401506    -0.11000
C1148       C  0.26637193  0.78547893  0.47078283     0.09900
C1149       C  0.24500508  0.75853252  0.48783542    -0.02800
C1150       C  0.21461998  0.74018204  0.47590312     0.09700
C1151       C  0.19471336  0.71305717  0.49226778    -0.12800
C1152       C  0.20476623  0.70279872  0.51806164    -0.12800
C1153       C  0.23335450  0.72158255  0.53238350     0.09700
C1154       C  0.25410543  0.74958426  0.51669901    -0.02800
C1155       C  0.29723031  0.80035603  0.48069054    -0.13000
C1156       C  0.30602116  0.79163662  0.50908310    -0.13000
C1157       C  0.28433896  0.76788972  0.52894551     0.09900
C1158       C  0.29186725  0.76092851  0.55999005    -0.11000
C1159       C  0.26939799  0.73455186  0.57611143    -0.04900
C1160       C  0.24199978  0.71328816  0.56166913    -0.11100
H1161       H  0.17123377  0.69888671  0.48472034     0.07200
H1162       H  0.18930021  0.67991496  0.52635133     0.07200
H1163       H  0.31499470  0.81886560  0.46661889     0.07300
H1164       H  0.33002384  0.80394907  0.51553275     0.07300
H1165       H  0.21698878  0.78767508  0.41638425     0.03800
H1166       H  0.27391954  0.72939614  0.60014752     0.03800
C1167       C  0.21057192  0.96424327  0.43751691    -0.11100
C1168       C  0.23673195  0.96627798  0.42261863    -0.04900
C1169       C  0.26376015  0.97303485  0.43927226    -0.11000
C1170       C  0.26758980  0.98550876  0.47042061     0.09900
C1171       C  0.24310726  0.98799871  0.48476532    -0.02800
C1172       C  0.21394296  0.97509027  0.46948800     0.09700
C1173       C  0.18926712  0.97381681  0.48682897    -0.12800
C1174       C  0.19421667  0.49128357  0.51370726    -0.12800
C1175       C  0.22283176  0.50540356  0.52867261     0.09700
C1176       C  0.24727347  0.50236368  0.51510517    -0.02800
C1177       C  0.29505870  0.99615237  0.48744511    -0.13000
C1178       C  0.29986045  0.51205425  0.51590465    -0.13000
C1179       C  0.27607696  0.51469822  0.53101838     0.09900
C1180       C  0.27990295  0.52922945  0.56129157    -0.11000
C1181       C  0.25494521  0.53148288  0.57370552    -0.04900
C1182       C  0.22736154  0.52159578  0.55732828    -0.11100
H1183       H  0.16569943  0.95970108  0.47985281     0.07200
H1184       H  0.17486605  0.49260363  0.52315639     0.07200
H1185       H  0.31368094  0.99334806  0.47834929     0.07300
H1186       H  0.32281282  0.52266373  0.52536361     0.07300
H1187       H  0.23573970  0.96090700  0.39755938     0.03800
H1188       H  0.25691238  0.54161413  0.59679859     0.03800
O1189       O  0.01533446  0.96368099  0.02827907    -0.88500
C1190       C  0.06108697  0.53053761  0.95991463     0.87500
Mg1191     Mg  0.46891274  0.92855687  0.02245661     1.58100
O1192       O  0.03864827  0.55465089  0.02892893    -0.88300
O1193       O  0.04451054  0.49978854  0.06101138    -0.75600
C1194       C  0.39242052  0.49782730  0.98255977     0.92500
O1195       O  0.00742297  0.95832824  0.95107824    -0.75400
O1196       O  0.39231424  0.97286107  0.97954953    -0.82900
Mg1197     Mg  0.04550020  0.97062477  0.98822221     1.58000
C1198       C  0.99412831  0.60608269  0.01285008     0.92500
O1199       O  0.08532395  0.98001714  0.02126381    -0.81200
H1200       H  0.03927207  0.56076178  0.07618286    -0.06500
C1201       C  0.48062571  0.53234767  0.95168586     0.87400
O1202       O  0.45095370  0.95368147  0.05359021    -0.75700
O1203       O  0.05665308  0.51795437  0.98653705    -0.88500
O1204       O  0.02021626  0.60770521  0.00901803    -0.81300
C1205       C  0.11026174  0.61384057  0.99831437     0.92600
C1206       C  0.11065063  0.50437814  0.02508846     0.92400
Mg1207     Mg  0.45899003  0.53314579  0.01881806     1.58000
O1208       O  0.41711396  0.52270478  0.98722073    -0.81200
O1209       O  0.49769294  0.54668927  0.05572386    -0.75400
O1210       O  0.10974050  0.58902611  0.00608303    -0.81300
O1211       O  0.03415354  0.92072013  0.98926337    -0.83000
O1212       O  0.39748166  0.91882390  0.00462061    -0.81300
C1213       C  0.02604122  0.55458635  0.05440447     0.86900
O1214       O  0.44890870  0.98697015  0.02128300    -0.88400
O1215       O  0.48961488  0.54078478  0.97914299    -0.88600
O1216       O  0.46036123  0.00499869  0.94619010    -0.75600
Mg1217     Mg  0.07458637  0.54273673  0.02995661     1.58000
O1218       O  0.08570772  0.61438361  0.99166803    -0.83000
H1219       H  0.01430584  0.95645953  0.07563462    -0.06700
O1220       O  0.46744189  0.95147803  0.97892450    -0.88300
H1221       H  0.46556953  0.94498952  0.93166826    -0.06500
H1222       H  0.43535126  0.98208730  0.06713558    -0.06700
C1223       C  0.47927591  0.95100728  0.95311605     0.86800
C1224       C  0.02430974  0.97238328  0.05567411     0.87400
C1225       C  0.44443998  0.97458795  0.04799895     0.87500
H1226       H  0.49059500  0.54844904  0.93186413    -0.06700
O1227       O  0.05446998  0.55141848  0.95447415    -0.75700
Mg1228     Mg  0.43108675  0.96246169  0.97810108     1.58000
H1229       H  0.07025554  0.52322701  0.94068089    -0.06700
C1230       C  0.50799887  0.89669318  0.99148681     0.92500
O1231       O  0.42043545  0.89151060  0.01392890    -0.82900
C1232       C  0.39645423  0.89341311  0.00876233     0.92500
O1233       O  0.11207357  0.53005831  0.02815976    -0.82900
Mg1234     Mg  0.03632390  0.57680067  0.98502935     1.58200
O1235       O  0.48396439  0.89794233  0.99854630    -0.81300
O1236       O  0.46928553  0.58097212  0.01517425    -0.83000
O1237       O  0.34907088  0.63064895  0.35367513    -0.88500
C1238       C  0.38283081  0.69785078  0.28309412     0.87500
Mg1239     Mg  0.30200328  0.59436394  0.35140092     1.58100
O1240       O  0.36924818  0.71915572  0.35875701    -0.88300
O1241       O  0.38165163  0.66727184  0.38386722    -0.75600
C1242       C  0.22236373  0.66534425  0.33014767     0.92500
O1243       O  0.33125541  0.62228299  0.27815539    -0.75400
O1244       O  0.22167675  0.64055877  0.32355328    -0.82900
Mg1245     Mg  0.37435634  0.63846819  0.30938387     1.58000
C1246       C  0.32930605  0.77352041  0.35700669     0.92500
O1247       O  0.42072362  0.65310319  0.33296438    -0.81200
H1248       H  0.37787651  0.72567069  0.40561862    -0.06500
C1249       C  0.30564561  0.70015802  0.29145174     0.87400
O1250       O  0.28652318  0.61835113  0.38763072    -0.75700
O1251       O  0.38205866  0.68486690  0.30876352    -0.88500
O1252       O  0.35344602  0.77143746  0.35575659    -0.81300
C1253       C  0.43670848  0.78028757  0.32143061     0.92600
C1254       C  0.44476297  0.67921857  0.33369067     0.92400
Mg1255     Mg  0.29161762  0.70004570  0.36200739     1.58000
O1256       O  0.24712683  0.68903041  0.33766503    -0.81200
O1257       O  0.33389686  0.71282562  0.39336832    -0.75400
O1258       O  0.43510854  0.75447504  0.32277165    -0.81300
O1259       O  0.36608644  0.58961113  0.31350332    -0.83000
O1260       O  0.22796149  0.58333590  0.34202064    -0.81300
C1261       C  0.36131767  0.71969484  0.38662025     0.86900
O1262       O  0.28099433  0.65286608  0.36082375    -0.88400
O1263       O  0.31697242  0.70804613  0.31823815    -0.88600
O1264       O  0.28592008  0.67269327  0.28592664    -0.75600
Mg1265     Mg  0.40531512  0.71012768  0.35079177     1.58000
O1266       O  0.41249409  0.78227742  0.32266698    -0.83000
H1267       H  0.35462482  0.62363063  0.39991724    -0.06700
O1268       O  0.29605443  0.61831610  0.31156706    -0.88300
H1269       H  0.28713427  0.60821229  0.26528468    -0.06500
H1270       H  0.27223745  0.64557776  0.40788778    -0.06700
C1271       C  0.30383866  0.61581727  0.28427407     0.86800
C1272       C  0.36142804  0.63958468  0.37988089     0.87400
C1273       C  0.27942600  0.63927637  0.38625641     0.87500
H1274       H  0.31341057  0.71684342  0.27204259    -0.06700
O1275       O  0.37674644  0.71952648  0.28184560    -0.75700
Mg1276     Mg  0.25982328  0.62932291  0.31711464     1.58000
H1277       H  0.38866780  0.69056483  0.26126327    -0.06700
C1278       C  0.34102038  0.56458218  0.31759445     0.92500
O1279       O  0.25243519  0.55676092  0.34594069    -0.82900
C1280       C  0.22774497  0.55801928  0.34360544     0.92500
O1281       O  0.44359154  0.70280191  0.34032478    -0.82900
Mg1282     Mg  0.36353599  0.74390169  0.32015630     1.58200
O1283       O  0.31568292  0.56451000  0.32134222    -0.81300
O1284       O  0.30285516  0.74986974  0.35929772    -0.83000
O1285       O  0.15086568  0.86920117  0.70702356    -0.88500
C1286       C  0.10931069  0.80888659  0.63542043     0.87500
Mg1287     Mg  0.19756478  0.90467198  0.70445609     1.58100
O1288       O  0.12620625  0.77906432  0.70439788    -0.88300
O1289       O  0.11900900  0.83150401  0.73828654    -0.75600
C1290       C  0.27566890  0.83726396  0.66538281     0.92500
O1291       O  0.16431569  0.87984040  0.63062449    -0.75400
O1292       O  0.27608929  0.86255004  0.66298858    -0.82900
Mg1293     Mg  0.12371445  0.86527875  0.66554017     1.58000
C1294       C  0.16790230  0.72557328  0.68570169     0.92500
O1295       O  0.08188852  0.85423312  0.69630321    -0.81200
H1296       H  0.12161156  0.76789295  0.75108005    -0.06500
C1297       C  0.19001966  0.80659702  0.63086148     0.87400
O1298       O  0.21272873  0.87646878  0.73577473    -0.75700
O1299       O  0.11202766  0.81881078  0.66272547    -0.88500
O1300       O  0.14310242  0.72677002  0.68490528    -0.81300
C1301       C  0.05598416  0.72504388  0.66754318     0.92600
C1302       C  0.05595245  0.83010803  0.69877819     0.92400
Mg1303     Mg  0.20586285  0.79856537  0.69821242     1.58000
O1304       O  0.25067219  0.81229540  0.66997486    -0.81200
O1305       O  0.16435388  0.78229159  0.73275927    -0.75400
O1306       O  0.05766940  0.74932723  0.67771228    -0.81300
O1307       O  0.13525863  0.91395257  0.66742706    -0.83000
O1308       O  0.27164082  0.91795323  0.68828809    -0.81300
C1309       C  0.13649772  0.77586866  0.73016430     0.86900
O1310       O  0.21754552  0.84568485  0.70328165    -0.88400
O1311       O  0.17858716  0.79591045  0.65746085    -0.88600
O1312       O  0.21107078  0.83418203  0.62728674    -0.75600
Mg1313     Mg  0.09083812  0.79144142  0.70496280     1.58000
O1314       O  0.08010222  0.72316536  0.66220951    -0.83000
H1315       H  0.14880917  0.87371232  0.75432495    -0.06700
O1316       O  0.20252107  0.88553586  0.66062625    -0.88300
H1317       H  0.20756022  0.89493340  0.61353936    -0.06500
H1318       H  0.22678313  0.84667545  0.74999777    -0.06700
C1319       C  0.19238472  0.88747246  0.63422986     0.86800
C1320       C  0.13991694  0.85903018  0.73393103     0.87400
C1321       C  0.21954667  0.85584435  0.73038427     0.87500
H1322       H  0.18162001  0.79231349  0.61012598    -0.06700
O1323       O  0.11638941  0.78870163  0.62897886    -0.75700
Mg1324     Mg  0.23845151  0.87422894  0.66118208     1.58000
H1325       H  0.10168830  0.81830987  0.61640661    -0.06700
C1326       C  0.16075353  0.93813419  0.67097672     0.92500
O1327       O  0.24657075  0.94233008  0.70036274    -0.82900
C1328       C  0.27157098  0.94239383  0.69533665     0.92500
O1329       O  0.05348979  0.80401177  0.70238730    -0.82900
Mg1330     Mg  0.13088724  0.76025369  0.65994693     1.58200
O1331       O  0.18470427  0.93741128  0.67968612    -0.81300
O1332       O  0.19368787  0.74950905  0.68979257    -0.83000
C1333       C  0.02819267  0.84715203  0.66366682    -0.09400
C1334       C  0.02848755  0.83254748  0.69243610     0.06800
C1335       C  0.00217787  0.81892396  0.71214006    -0.03100
C1336       C  0.47649730  0.82131706  0.70344816    -0.07600
C1337       C  0.47638995  0.83668981  0.67493745     0.06000
C1338       C  0.00236779  0.84886559  0.65442191    -0.02600
Br1339     Br  0.00451584  0.86762143  0.61342737    -0.02300
H1340       H  0.04807125  0.85667787  0.64777262     0.09900
H1341       H  0.45651421  0.81146209  0.71918239     0.07900
Br1342     Br  0.00071622  0.79805544  0.75146920    -0.02700
C1343       C  0.33071348  0.86258938  0.64927195    -0.09400
C1344       C  0.30542000  0.83752833  0.66413598     0.06800
C1345       C  0.31015269  0.81527501  0.68020143    -0.03100
C1346       C  0.33948978  0.81838582  0.68071793    -0.07600
C1347       C  0.36458194  0.84334400  0.66578407     0.06000
C1348       C  0.36003525  0.86574936  0.64985398    -0.02600
Br1349     Br  0.39201707  0.90039587  0.62671990    -0.02300
H1350       H  0.32771017  0.87998708  0.63696350     0.09900
H1351       H  0.34282945  0.80113837  0.69290966     0.07900
Br1352     Br  0.27854321  0.78106524  0.70382263    -0.02700
C1353       C  0.40737734  0.90110796  0.70690021    -0.09400
C1354       C  0.40780766  0.87476283  0.71642816     0.06800
C1355       C  0.39515720  0.86187808  0.74692850    -0.03100
C1356       C  0.38570460  0.87747024  0.76789652    -0.07600
C1357       C  0.38181291  0.90182376  0.75638572     0.06000
C1358       C  0.39044458  0.91119958  0.72421561    -0.02600
Br1359     Br  0.37258908  0.93082169  0.70023754    -0.02300
H1360       H  0.41701724  0.91159540  0.68401806     0.09900
H1361       H  0.37967559  0.86926764  0.79240050     0.07900
Br1362     Br  0.38606960  0.82146465  0.75913526    -0.02700
C1363       C  0.36537423  0.82567634  0.59719107    -0.09400
C1364       C  0.37556030  0.80975051  0.61720755     0.06800
C1365       C  0.35921756  0.77768945  0.61573031    -0.03100
C1366       C  0.33465741  0.76305896  0.59429698    -0.07600
C1367       C  0.32244033  0.77898075  0.57695021     0.06000
C1368       C  0.33776165  0.81093931  0.58012194    -0.02600
Br1369     Br  0.31986554  0.83551721  0.56756033    -0.02300
H1370       H  0.37806041  0.85004111  0.59628813     0.09900
H1371       H  0.32362139  0.73857300  0.59313682     0.07900
Br1372     Br  0.36641882  0.75225764  0.64499034    -0.02700
C1373       C  0.44383010  0.78655533  0.63245161    -0.09400
C1374       C  0.43515545  0.80725890  0.62012736     0.06800
C1375       C  0.43730426  0.81230550  0.58639738    -0.03100
C1376       C  0.44634369  0.79580008  0.56649673    -0.07600
C1377       C  0.45747478  0.77724211  0.57946660     0.06000
C1378       C  0.45808896  0.77477343  0.61325197    -0.02600
Br1379     Br  0.98013540  0.75761806  0.63506075    -0.02300
H1380       H  0.44169661  0.78122337  0.65784335     0.09900
H1381       H  0.44520633  0.79802671  0.54076458     0.07900
Br1382     Br  0.43227224  0.84379154  0.56593046    -0.02700
C1383       C  0.32843894  0.97217334  0.68548842    -0.09400
C1384       C  0.30114493  0.97192573  0.69454084     0.06800
C1385       C  0.30226728  0.00033170  0.69825271    -0.03100
C1386       C  0.32880472  0.52735663  0.68940328    -0.07600
C1387       C  0.35582555  0.52736633  0.68080827     0.06000
C1388       C  0.35578222  0.99958961  0.67960009    -0.02600
Br1389     Br  0.39265977  0.99867935  0.66879370    -0.02300
H1390       H  0.32845377  0.95097732  0.68240736     0.09900
H1391       H  0.32891886  0.54880268  0.69092434     0.07900
Br1392     Br  0.26990820  0.50487810  0.71759696    -0.02700
C1393       C  0.47090210  0.66518020  0.67684516    -0.09400
C1394       C  0.46872966  0.64227057  0.65663496     0.06800
C1395       C  0.99497387  0.64873137  0.63763079    -0.03100
C1396       C  0.02244183  0.67617777  0.64093819    -0.07600
C1397       C  0.02509006  0.69806785  0.66261544     0.06000
C1398       C  0.99853689  0.69267033  0.68018753    -0.02600
Br1399     Br  0.49860008  0.71999688  0.71168895    -0.02300
H1400       H  0.45131156  0.66083608  0.69168621     0.09900
H1401       H  0.04235042  0.68011189  0.62689476     0.07900
Br1402     Br  0.99776426  0.62193829  0.60792605    -0.02700
C1403       C  0.37146397  0.01488921  0.77027919    -0.09400
C1404       C  0.39091463  0.00235126  0.77507552     0.06800
C1405       C  0.42038405  0.01804073  0.76033437    -0.03100
C1406       C  0.42596230  0.53879969  0.73508471    -0.07600
C1407       C  0.40505954  0.54899958  0.72790105     0.06000
C1408       C  0.38003204  0.53997947  0.74931668    -0.02600
Br1409     Br  0.35937064  0.56319546  0.75323598    -0.02300
H1410       H  0.34926513  0.00506152  0.78207314     0.09900
H1411       H  0.44670067  0.54668915  0.72097766     0.07900
Br1412     Br  0.45409069  0.01279877  0.77432365    -0.02700
C1413       C  0.34348254  0.57754396  0.62103183    -0.09400
C1414       C  0.36070241  0.56252974  0.62293601     0.06800
C1415       C  0.35131729  0.53668351  0.60378462    -0.03100
C1416       C  0.32414248  0.52508329  0.58602239    -0.07600
C1417       C  0.30866664  0.54173919  0.58152476     0.06000
C1418       C  0.31982012  0.56925243  0.59871213    -0.02600
Br1419     Br  0.30607041  0.59833012  0.59138403    -0.02300
H1420       H  0.34876229  0.59634361  0.63647963     0.09900
H1421       H  0.31576473  0.00325408  0.57487171     0.07900
Br1422     Br  0.37584264  0.01782419  0.59794567    -0.02700
C1423       C  0.40503677  0.64098365  0.61577023    -0.09400
C1424       C  0.41743127  0.62171317  0.61231543     0.06800
C1425       C  0.43413539  0.62459275  0.58429779    -0.03100
C1426       C  0.44583212  0.65150216  0.56586744    -0.07600
C1427       C  0.43304109  0.67087857  0.56855154     0.06000
C1428       C  0.40898904  0.66207019  0.59155198    -0.02600
Br1429     Br  0.37964918  0.67626991  0.59031083    -0.02300
H1430       H  0.39161315  0.63920084  0.63681061     0.09900
H1431       H  0.46475135  0.65658924  0.54983524     0.07900
Br1432     Br  0.43545210  0.59035044  0.56697404    -0.02700
C1433       C  0.02596106  0.90820489  0.71849490    -0.09400
C1434       C  0.02562470  0.90057646  0.75139429     0.06800
C1435       C  0.49607742  0.88399386  0.76622245    -0.03100
C1436       C  0.46920656  0.87103440  0.74740674    -0.07600
C1437       C  0.47010712  0.87817326  0.71450075     0.06000
C1438       C  0.49882771  0.89983335  0.70153814    -0.02600
Br1439     Br  0.00169687  0.91976108  0.66117555    -0.02300
H1440       H  0.04745759  0.92176494  0.70568624     0.09900
H1441       H  0.44776463  0.85545480  0.75884923     0.07900
Br1442     Br  0.48989930  0.88147413  0.81184051    -0.02700
C1443       C  0.01861619  0.62699551  0.71767403    -0.09400
C1444       C  0.01707706  0.63007730  0.75103198     0.06800
C1445       C  0.48721402  0.61853955  0.76486056    -0.03100
C1446       C  0.46178253  0.61016404  0.74477142    -0.07600
C1447       C  0.46396982  0.60515742  0.71205435     0.06000
C1448       C  0.49208985  0.60942637  0.70060651    -0.02600
Br1449     Br  0.99333245  0.58159556  0.67091449    -0.02300
H1450       H  0.04023924  0.63415639  0.70548056     0.09900
H1451       H  0.43972433  0.60445246  0.75520713     0.07900
Br1452     Br  0.47802037  0.60722080  0.80942109    -0.02700
C1453       C  0.14081850  0.64260306  0.66538387    -0.09400
C1454       C  0.16818142  0.64149079  0.66737478     0.06800
C1455       C  0.19535461  0.66806315  0.67565456    -0.03100
C1456       C  0.19465549  0.69492249  0.68172703    -0.07600
C1457       C  0.16702800  0.69599456  0.68025117     0.06000
C1458       C  0.13985825  0.66920123  0.67141432    -0.02600
Br1459     Br  0.10025488  0.66617633  0.66638936    -0.02300
H1460       H  0.11969150  0.62222713  0.65961764     0.09900
H1461       H  0.21588146  0.71494021  0.68823122     0.07900
Br1462     Br  0.23336561  0.66815558  0.68173604    -0.02700
C1463       C  0.18969986  0.52272546  0.65823414    -0.09400
C1464       C  0.16261929  0.52390973  0.66371081     0.06800
C1465       C  0.13473659  0.99650232  0.66884780    -0.03100
C1466       C  0.13472793  0.96895883  0.67095972    -0.07600
C1467       C  0.16199096  0.96780957  0.66681636     0.06000
C1468       C  0.18955703  0.99499924  0.65941366    -0.02600
Br1469     Br  0.22681010  0.49547409  0.64745823    -0.02300
H1470       H  0.21094165  0.54350528  0.65257337     0.09900
H1471       H  0.11313751  0.94829252  0.67577965     0.07900
Br1472     Br  0.09569302  0.99500218  0.67006933    -0.02700
C1473       C  0.15549806  0.50569628  0.75334145    -0.09400
C1474       C  0.12547228  0.99371781  0.76585316     0.06800
C1475       C  0.11082555  0.01101534  0.76192360    -0.03100
C1476       C  0.12137278  0.53353761  0.73837979    -0.07600
C1477       C  0.14997300  0.54455149  0.72305424     0.06000
C1478       C  0.16880308  0.53280757  0.73456211    -0.02600
Br1479     Br  0.21219059  0.55295894  0.72596468    -0.02300
H1480       H  0.16824384  0.49379964  0.75732624     0.09900
H1481       H  0.10490287  0.53929261  0.73046900     0.07900
Br1482     Br  0.07321943  0.00148739  0.78400327    -0.02700
C1483       C  0.15858376  0.62519122  0.73767993    -0.09400
C1484       C  0.14102446  0.59954258  0.71878258     0.06800
C1485       C  0.10892917  0.58713231  0.71936229    -0.03100
C1486       C  0.09526629  0.59504434  0.74351373    -0.07600
C1487       C  0.11194516  0.62302713  0.75933002     0.06000
C1488       C  0.14439585  0.63912950  0.75427315    -0.02600
Br1489     Br  0.16997038  0.68203591  0.76143936    -0.02300
H1490       H  0.18337594  0.63707322  0.73528210     0.09900
H1491       H  0.07062205  0.58112422  0.74657432     0.07900
Br1492     Br  0.08257630  0.56078401  0.68642017    -0.02700
C1493       C  0.16086139  0.52747228  0.59656790    -0.09400
C1494       C  0.17587348  0.55923997  0.60176857     0.06800
C1495       C  0.19971479  0.57668647  0.57940052    -0.03100
C1496       C  0.21714691  0.56430750  0.56705183    -0.07600
C1497       C  0.20642513  0.53283994  0.56910497     0.06000
C1498       C  0.17668079  0.51399612  0.58218383    -0.02600
Br1499     Br  0.15835433  0.97042826  0.58495376    -0.02300
H1500       H  0.13863279  0.51276417  0.60745547     0.09900
H1501       H  0.23720565  0.57860691  0.55228938     0.07900
Br1502     Br  0.19178794  0.59849861  0.54596868    -0.02700
C1503       C  0.19208731  0.66974927  0.58384209    -0.09400
C1504       C  0.22389677  0.68273818  0.57813120     0.06800
C1505       C  0.23849403  0.66628703  0.58886232    -0.03100
C1506       C  0.22217435  0.63973546  0.60749181    -0.07600
C1507       C  0.19026934  0.62619322  0.61136959     0.06000
C1508       C  0.17499081  0.64025056  0.59676218    -0.02600
Br1509     Br  0.13114241  0.61917199  0.59222070    -0.02300
H1510       H  0.18014421  0.68192630  0.57718501     0.09900
H1511       H  0.23426076  0.62904294  0.61824718     0.07900
Br1512     Br  0.27991986  0.67731248  0.57743101    -0.02700
C1513       C  0.00871257  0.68588483  0.02588919    -0.09400
C1514       C  0.98823723  0.68753924  0.00386039     0.06800
C1515       C  0.46933755  0.66184011  0.98567748    -0.03100
C1516       C  0.47099903  0.63521847  0.98993504    -0.07600
C1517       C  0.99185077  0.63392150  0.01155430     0.06000
C1518       C  0.01068643  0.65941945  0.02976200    -0.02600
Br1519     Br  0.03895234  0.65889742  0.06035747    -0.02300
H1520       H  0.02464915  0.70591747  0.03870379     0.09900
H1521       H  0.45665761  0.61570531  0.97543541     0.07900
Br1522     Br  0.44202368  0.66227205  0.95375549    -0.02700
C1523       C  0.47269885  0.81100042  0.98596113    -0.09400
C1524       C  0.99755385  0.80664125  0.99295800     0.06800
C1525       C  0.02641735  0.83233332  0.99895780    -0.03100
C1526       C  0.02998296  0.86171589  0.99693247    -0.07600
C1527       C  0.50511270  0.86605560  0.98869722     0.06000
C1528       C  0.47650146  0.84012763  0.98219591    -0.02600
Br1529     Br  0.44224056  0.84253648  0.96512407    -0.02300
H1530       H  0.45034450  0.79151875  0.98175263     0.09900
H1531       H  0.05196823  0.88107849  0.00288090     0.07900
Br1532     Br  0.06069895  0.82815758  0.01280282    -0.02700
C1533       C  0.02651658  0.82423160  0.90065121    -0.09400
C1534       C  0.05804014  0.83447696  0.89728485     0.06800
C1535       C  0.07041976  0.81825936  0.91357064    -0.03100
C1536       C  0.05274306  0.79589891  0.93645455    -0.07600
C1537       C  0.02153424  0.78654781  0.94106368     0.06000
C1538       C  0.00795349  0.79936932  0.92084301    -0.02600
Br1539     Br  0.46428253  0.78291635  0.91775828    -0.02300
H1540       H  0.01631941  0.83598848  0.88821640     0.09900
H1541       H  0.06360557  0.78600340  0.95099259     0.07900
Br1542     Br  0.11177971  0.82645613  0.90632094    -0.02700
C1543       C  0.03612641  0.72460965  0.89268922    -0.09400
C1544       C  0.05411703  0.71223221  0.90425669     0.06800
C1545       C  0.05285677  0.70601828  0.93742515    -0.03100
C1546       C  0.03986281  0.71781324  0.95807480    -0.07600
C1547       C  0.01895385  0.72659667  0.94690844     0.06000
C1548       C  0.01547583  0.72742727  0.91327173    -0.02600
Br1549     Br  0.98136594  0.72833383  0.89389119    -0.02300
H1550       H  0.03716514  0.73131507  0.86779839     0.09900
H1551       H  0.04535845  0.71882671  0.98306804     0.07900
Br1552     Br  0.06577733  0.67909424  0.95556473    -0.02700
C1553       C  0.16790779  0.64261316  0.99290762    -0.09400
C1554       C  0.14022040  0.64292318  0.99799921     0.06800
C1555       C  0.14191006  0.67120943  0.00382066    -0.03100
C1556       C  0.17006869  0.69815553  0.00208131    -0.07600
C1557       C  0.19763009  0.69783758  0.99774044     0.06000
C1558       C  0.19641176  0.66970300  0.99292882    -0.02600
Br1559     Br  0.23278470  0.66782178  0.98278059    -0.02300
H1560       H  0.16740346  0.62132161  0.98842875     0.09900
H1561       H  0.17066744  0.71969036  0.00527241     0.07900
Br1562     Br  0.10783000  0.67498849  0.01861350    -0.02700
C1563       C  0.31150163  0.83588313  0.00780388    -0.09400
C1564       C  0.31177254  0.81248676  0.99038510     0.06800
C1565       C  0.33992217  0.81593031  0.97914367    -0.03100
C1566       C  0.36707470  0.84255957  0.98573989    -0.07600
C1567       C  0.36702240  0.86545229  0.00421921     0.06000
C1568       C  0.33887144  0.86219467  0.01499982    -0.02600
Br1569     Br  0.33656449  0.89167623  0.04154901    -0.02300
H1570       H  0.28996712  0.83288856  0.01720594     0.09900
H1571       H  0.38843589  0.84534657  0.97644340     0.07900
Br1572     Br  0.34294735  0.78418004  0.95683327    -0.02700
C1573       C  0.25293485  0.78621552  0.90330415    -0.09400
C1574       C  0.27177803  0.79350896  0.93089419     0.06800
C1575       C  0.29821289  0.82266601  0.92824484    -0.03100
C1576       C  0.29488205  0.84639187  0.91559380    -0.07600
C1577       C  0.27360339  0.84026309  0.89118110     0.06000
C1578       C  0.25307223  0.80960497  0.88398893    -0.02600
Br1579     Br  0.22400430  0.79906570  0.85009999    -0.02300
H1580       H  0.23759319  0.76300781  0.89683052     0.09900
H1581       H  0.31370647  0.86949802  0.91805062     0.07900
Br1582     Br  0.33197723  0.82524427  0.90372049    -0.02700
C1583       C  0.19334162  0.70950933  0.93005273    -0.09400
C1584       C  0.20729656  0.73815984  0.94457473     0.06800
C1585       C  0.19417713  0.75698686  0.93959220    -0.03100
C1586       C  0.17021275  0.74844340  0.91775360    -0.07600
C1587       C  0.15485554  0.71886688  0.90501005     0.06000
C1588       C  0.16523536  0.69848198  0.91443640    -0.02600
Br1589     Br  0.13976882  0.65486125  0.91308518    -0.02300
H1590       H  0.20251111  0.69433779  0.93394762     0.09900
H1591       H  0.16251051  0.76458004  0.91215089     0.07900
Br1592     Br  0.20811534  0.79448992  0.96183345    -0.02700
C1593       C  0.32575581  0.51248883  0.96941023    -0.09400
C1594       C  0.30732170  0.49749469  0.99656216     0.06800
C1595       C  0.31632299  0.98111988  0.01737775    -0.03100
C1596       C  0.34367614  0.98089283  0.01148146    -0.07600
C1597       C  0.36275517  0.49711330  0.98529340     0.06000
C1598       C  0.35367032  0.51302189  0.96409558    -0.02600
Br1599     Br  0.37810440  0.53488854  0.92732530    -0.02300
H1600       H  0.31845702  0.52402410  0.95242149     0.09900
H1601       H  0.35035869  0.96829636  0.02777362     0.07900
Br1602     Br  0.29100970  0.95679437  0.05272356    -0.02700
C1603       C  0.18965091  0.52065023  0.99961884    -0.09400
C1604       C  0.19147817  0.49634847  0.01412411     0.06800
C1605       C  0.16633564  0.97448792  0.03238365    -0.03100
C1606       C  0.14055958  0.97803135  0.03707486    -0.07600
C1607       C  0.13917497  0.50282104  0.02306967     0.06000
C1608       C  0.16358338  0.52357099  0.00313994    -0.02600
Br1609     Br  0.16104057  0.55380730  0.97665477    -0.02300
H1610       H  0.20841949  0.53709554  0.98463353     0.09900
H1611       H  0.12126169  0.96103450  0.05110350     0.07900
Br1612     Br  0.16551422  0.93882730  0.04997244    -0.02700
C1613       C  0.18655564  0.97777861  0.94314332    -0.09400
C1614       C  0.19833966  0.96217631  0.96128995     0.06800
C1615       C  0.18517684  0.93054844  0.95694468    -0.03100
C1616       C  0.16379472  0.91631988  0.93257056    -0.07600
C1617       C  0.15135122  0.93177932  0.91503994     0.06000
C1618       C  0.16147113  0.96239166  0.92277343    -0.02600
Br1619     Br  0.13947633  0.98315727  0.91060618    -0.02300
H1620       H  0.19635814  0.00204463  0.94520598     0.09900
H1621       H  0.15555945  0.89240546  0.92860315     0.07900
Br1622     Br  0.19257973  0.40487981  0.98571630    -0.02700
C1623       C  0.26502956  0.94061470  0.96349381    -0.09400
C1624       C  0.25787000  0.96310524  0.95402662     0.06800
C1625       C  0.26025681  0.97128781  0.92118546    -0.03100
C1626       C  0.26831905  0.95595995  0.89865970    -0.07600
C1627       C  0.27694294  0.93449683  0.90863142     0.06000
C1628       C  0.27620220  0.92784506  0.94175274    -0.02600
Br1629     Br  0.29289671  0.90389103  0.95968868    -0.02300
H1630       H  0.26382089  0.93436786  0.98859065     0.09900
H1631       H  0.26877832  0.96149157  0.87340755     0.07900
Br1632     Br  0.25573678  0.50492576  0.90626332    -0.02700
C1633       C  0.41435036  0.75112071  0.07281828    -0.09400
C1634       C  0.43011480  0.77606522  0.09325376     0.06800
C1635       C  0.46194886  0.79623369  0.08636668    -0.03100
C1636       C  0.47745555  0.78772618  0.06455620    -0.07600
C1637       C  0.46082526  0.76376105  0.04377625     0.06000
C1638       C  0.42873164  0.74844833  0.04562358    -0.02600
Br1639     Br  0.40416195  0.73226262  0.00816239    -0.02300
H1640       H  0.39003922  0.73540843  0.07543923     0.09900
H1641       H  0.00211881  0.80165704  0.06153480     0.07900
Br1642     Br  0.98437875  0.83819534  0.09878331    -0.02700
C1643       C  0.32743885  0.77749147  0.03832169    -0.09400
C1644       C  0.29919048  0.77511165  0.04570907     0.06800
C1645       C  0.29561011  0.78408845  0.07671925    -0.03100
C1646       C  0.31946525  0.79293845  0.09947451    -0.07600
C1647       C  0.34858181  0.79749981  0.09014658     0.06000
C1648       C  0.35280760  0.79324741  0.05754690    -0.02600
Br1649     Br  0.39264195  0.80634347  0.03839237    -0.02300
H1650       H  0.33014287  0.76805733  0.01663714     0.09900
H1651       H  0.31509528  0.79591645  0.12417129     0.07900
Br1652     Br  0.25935947  0.78497814  0.08904022    -0.02700
C1653       C  0.31615189  0.97965068  0.32574342    -0.09400
C1654       C  0.34425379  0.97985194  0.32438310     0.06800
C1655       C  0.37143932  0.00844429  0.32112085    -0.03100
C1656       C  0.36969039  0.53522441  0.31641629    -0.07600
C1657       C  0.34145931  0.53500361  0.31889201     0.06000
C1658       C  0.31492949  0.50666796  0.32623581    -0.02600
Br1659     Br  0.27820814  0.50277894  0.34485605    -0.02300
H1660       H  0.29502470  0.95825727  0.32930868     0.09900
H1661       H  0.39088878  0.55663924  0.31317846     0.07900
Br1662     Br  0.41146536  0.01311886  0.32757638    -0.02700
C1663       C  0.35381640  0.82847784  0.37072213    -0.09400
C1664       C  0.33251112  0.80393612  0.35257429     0.06800
C1665       C  0.31782436  0.80969810  0.32686499    -0.03100
C1666       C  0.32257027  0.83903290  0.32143122    -0.07600
C1667       C  0.34261552  0.86346795  0.34048016     0.06000
C1668       C  0.35905711  0.85811226  0.36470195    -0.02600
Br1669     Br  0.38958980  0.89073641  0.38915897    -0.02300
H1670       H  0.36657685  0.82461787  0.38941337     0.09900
H1671       H  0.30917647  0.84236498  0.30329598     0.07900
Br1672     Br  0.29201373  0.77862585  0.29747492    -0.02700
C1673       C  0.33058617  0.96967997  0.39601908    -0.09400
C1674       C  0.31421107  0.94080372  0.38169624     0.06800
C1675       C  0.28251800  0.92336754  0.38858677    -0.03100
C1676       C  0.26923275  0.93260074  0.41215517    -0.07600
C1677       C  0.28416480  0.96250358  0.42369015     0.06000
C1678       C  0.31529812  0.98157065  0.41435900    -0.02600
Br1679     Br  0.33653964  0.52474327  0.42060060    -0.02300
H1680       H  0.35467641  0.98429360  0.39009157     0.09900
H1681       H  0.24550020  0.91747367  0.41861698     0.07900
Br1682     Br  0.25453647  0.89192624  0.36089331    -0.02700
C1683       C  0.28514191  0.85005655  0.37177065    -0.09400
C1684       C  0.30783881  0.87769272  0.38425606     0.06800
C1685       C  0.31289440  0.87882857  0.41763881    -0.03100
C1686       C  0.29557738  0.85252949  0.43714953    -0.07600
C1687       C  0.27561342  0.82398845  0.42361741     0.06000
C1688       C  0.27158399  0.82322031  0.38998129    -0.02600
Br1689     Br  0.25011504  0.78617406  0.36612788    -0.02300
H1690       H  0.27996637  0.84883558  0.34648496     0.09900
H1691       H  0.29824848  0.85438697  0.46287290     0.07900
Br1692     Br  0.34365135  0.91487796  0.43766622    -0.02700
C1693       C  0.40300125  0.90967056  0.29161159    -0.09400
C1694       C  0.37250016  0.90156674  0.28586845     0.06800
C1695       C  0.35745448  0.88257854  0.26001320    -0.03100
C1696       C  0.37216975  0.86970169  0.24279976    -0.07600
C1697       C  0.40405076  0.88042602  0.24592163     0.06000
C1698       C  0.41963604  0.90266752  0.26988354    -0.02600
Br1699     Br  0.46336632  0.92861327  0.27303544    -0.02300
H1700       H  0.41478500  0.92418011  0.31159993     0.09900
H1701       H  0.35826080  0.85140749  0.22690755     0.07900
Br1702     Br  0.31728644  0.87407021  0.24697886    -0.02700
C1703       C  0.16600839  0.97763163  0.32348236    -0.09400
C1704       C  0.13952555  0.97677112  0.33575321     0.06800
C1705       C  0.14223252  0.50315604  0.34987846    -0.03100
C1706       C  0.17126230  0.52877303  0.35357483    -0.07600
C1707       C  0.19781915  0.52952486  0.34155594     0.06000
C1708       C  0.19456986  0.50415370  0.32461430    -0.02600
Br1709     Br  0.22620417  0.50600532  0.29725626    -0.02300
H1710       H  0.16410340  0.95795122  0.31143449     0.09900
H1711       H  0.17298710  0.54854815  0.36521455     0.07900
Br1712     Br  0.10761316  0.50654237  0.36347562    -0.02700
C1713       C  0.46901717  0.83682375  0.32513580    -0.09400
C1714       C  0.46736533  0.80845520  0.32066407     0.06800
C1715       C  0.49522738  0.80761088  0.31934274    -0.03100
C1716       C  0.02318688  0.83418024  0.32348749    -0.07600
C1717       C  0.02484722  0.86247047  0.32679480     0.06000
C1718       C  0.49733232  0.86355776  0.32819834    -0.02600
Br1719     Br  0.49719855  0.90057128  0.33685416    -0.02300
H1720       H  0.44819410  0.83825873  0.32707106     0.09900
H1721       H  0.04402082  0.83283773  0.32287766     0.07900
Br1722     Br  0.49810079  0.77194289  0.31046168    -0.02700
C1723       C  0.03840895  0.86242538  0.39870686    -0.09400
C1724       C  0.06501830  0.87073240  0.38005964     0.06800
C1725       C  0.07715068  0.85070447  0.38088751    -0.03100
C1726       C  0.06519251  0.82571046  0.40234235    -0.07600
C1727       C  0.03745604  0.81608290  0.41943739     0.06000
C1728       C  0.02346664  0.83452834  0.41616777    -0.02600
Br1729     Br  0.48177043  0.82073072  0.42935509    -0.02300
H1730       H  0.02721101  0.87603864  0.39666003     0.09900
H1731       H  0.07624412  0.81192600  0.40315174     0.07900
Br1732     Br  0.10389213  0.85050988  0.34807939    -0.02700
C1733       C  0.14748556  0.92072537  0.37548241    -0.09400
C1734       C  0.12587930  0.92975705  0.38191421     0.06800
C1735       C  0.13208391  0.95021796  0.40683578    -0.03100
C1736       C  0.16103561  0.96402587  0.42136809    -0.07600
C1737       C  0.18105526  0.95190356  0.41824779     0.06000
C1738       C  0.17245894  0.92841089  0.39548294    -0.02600
Br1739     Br  0.19069955  0.90313786  0.39072669    -0.02300
H1740       H  0.14539878  0.90801452  0.35433546     0.09900
H1741       H  0.16708507  0.98367688  0.43585385     0.07900
Br1742     Br  0.10109217  0.95812688  0.42320071    -0.02700
C1743       C  0.03663788  0.91800952  0.25347664    -0.09400
C1744       C  0.04892502  0.90188222  0.26965273     0.06800
C1745       C  0.03977764  0.87241881  0.25841400    -0.03100
C1746       C  0.51098186  0.85578224  0.24382981    -0.07600
C1747       C  0.49583752  0.87119289  0.23241696     0.06000
C1748       C  0.01213084  0.90320319  0.23261681    -0.02600
Br1749     Br  0.00137400  0.92737698  0.20514868    -0.02300
H1750       H  0.04446056  0.94117097  0.25682311     0.09900
H1751       H  0.50073431  0.83136279  0.24233259     0.07900
Br1752     Br  0.56678607  0.85569140  0.26113479    -0.02700
C1753       C  0.48251566  0.70875615  0.07774602    -0.09400
C1754       C  0.46261089  0.70789140  0.05350004     0.06800
C1755       C  0.43106774  0.68754258  0.05804584    -0.03100
C1756       C  0.42056460  0.67253563  0.08754497    -0.07600
C1757       C  0.43987435  0.66476830  0.10508132     0.06000
C1758       C  0.47211841  0.68493228  0.10094017    -0.02600
Br1759     Br  0.50386430  0.67989152  0.12080303    -0.02300
H1760       H  0.00681858  0.72504731  0.07571771     0.09900
H1761       H  0.39589358  0.65942177  0.09130754     0.07900
Br1762     Br  0.40377249  0.66915191  0.02304854    -0.02700
C1763       C  0.30098979  0.52465183  0.08020019    -0.09400
C1764       C  0.30119201  0.53236019  0.04773574     0.06800
C1765       C  0.32876584  0.55592749  0.03448146    -0.03100
C1766       C  0.35602021  0.56758354  0.05189151    -0.07600
C1767       C  0.35589376  0.56065187  0.08491606     0.06000
C1768       C  0.32707282  0.54022229  0.09930858    -0.02600
Br1769     Br  0.32021481  0.53511144  0.14486678    -0.02300
H1770       H  0.28050455  0.50649620  0.09096579     0.09900
H1771       H  0.37716961  0.58357208  0.03968840     0.07900
Br1772     Br  0.32975888  0.57509266  0.99403048    -0.02700
C1773       C  0.40220032  0.96888374  0.26719872    -0.09400
C1774       C  0.37110194  0.95862264  0.27427712     0.06800
C1775       C  0.35490774  0.96759693  0.25303301    -0.03100
C1776       C  0.37112455  0.49067802  0.22975655    -0.07600
C1777       C  0.40284530  0.50223549  0.22437930     0.06000
C1778       C  0.41699077  0.98786700  0.24082192    -0.02600
Br1779     Br  0.45728537  0.99481079  0.22953514    -0.02300
H1780       H  0.41592965  0.96373931  0.28313278     0.09900
H1781       H  0.35909887  0.50038258  0.21695937     0.07900
Br1782     Br  0.31098209  0.94909038  0.25456671    -0.02700
C1783       C  0.26436848  0.70664956  0.05718062    -0.09400
C1784       C  0.24241800  0.71542435  0.04963373     0.06800
C1785       C  0.21515653  0.70249236  0.06832190    -0.03100
C1786       C  0.20765818  0.67717474  0.08822013    -0.07600
C1787       C  0.22958520  0.66840944  0.09608567     0.06000
C1788       C  0.25924623  0.68553779  0.08195716    -0.02600
Br1789     Br  0.29434187  0.68294637  0.09653772    -0.02300
H1790       H  0.28590432  0.71649594  0.04405290     0.09900
H1791       H  0.18452080  0.66472149  0.09789608     0.07900
Br1792     Br  0.18923113  0.72036037  0.07150275    -0.02700
C1793       C  0.24332993  0.55929271  0.04210320    -0.09400
C1794       C  0.24185942  0.53288706  0.05505325     0.06800
C1795       C  0.23142271  0.52459929  0.08712133    -0.03100
C1796       C  0.22491757  0.54381831  0.10566809    -0.07600
C1797       C  0.22231611  0.56799245  0.09140033     0.06000
C1798       C  0.23056158  0.57444741  0.05833181    -0.02600
Br1799     Br  0.22069402  0.59983528  0.03157243    -0.02300
H1800       H  0.25061698  0.56568622  0.01737557     0.09900
H1801       H  0.22051438  0.53874886  0.13102287     0.07900
Br1802     Br  0.22194028  0.98603687  0.10602060    -0.02700
C1803       C  0.09921820  0.51074129  0.25833875    -0.09400
C1804       C  0.12726529  0.52112372  0.24156911     0.06800
C1805       C  0.14228776  0.00375069  0.24489886    -0.03100
C1806       C  0.12803288  0.97590229  0.26219725    -0.07600
C1807       C  0.10132666  0.96703744  0.28074363     0.06000
C1808       C  0.08779200  0.98579574  0.27962759    -0.02600
Br1809     Br  0.05298222  0.97824657  0.30595394    -0.02300
H1810       H  0.08700806  0.52340688  0.25661174     0.09900
H1811       H  0.13947037  0.96251158  0.26364700     0.07900
Br1812     Br  0.18425481  0.01900884  0.23187544    -0.02700
C1813       C  0.13902034  0.64511008  0.34067520    -0.09400
C1814       C  0.14124393  0.67375625  0.33629085     0.06800
C1815       C  0.17019953  0.69945803  0.33028051    -0.03100
C1816       C  0.19614470  0.69605398  0.32821004    -0.07600
C1817       C  0.19378378  0.66713118  0.33096570     0.06000
C1818       C  0.16465305  0.64139058  0.33731438    -0.02600
Br1819     Br  0.15757259  0.60050046  0.34212323    -0.02300
H1820       H  0.11677602  0.62526451  0.34548635     0.09900
H1821       H  0.21823323  0.71614568  0.32345803     0.07900
Br1822     Br  0.17526179  0.73904912  0.32168327    -0.02700
C1823       C  0.50166428  0.70743263  0.33816089    -0.09400
C1824       C  0.47494222  0.68275165  0.32617771     0.06800
C1825       C  0.47838553  0.66528587  0.30266896    -0.03100
C1826       C  0.50734350  0.66870413  0.29735351    -0.07600
C1827       C  0.03202053  0.68553749  0.31824345     0.06000
C1828       C  0.03031739  0.70973347  0.33277680    -0.02600
Br1829     Br  0.06530686  0.74821055  0.34003984    -0.02300
H1830       H  0.50035672  0.72460972  0.35215022     0.09900
H1831       H  0.51008491  0.66016932  0.27522738     0.07900
Br1832     Br  0.44574155  0.63978817  0.27432370    -0.02700
C1833       C  0.02282816  0.67190603  0.38861102    -0.09400
C1834       C  0.05534921  0.68694461  0.38721245     0.06800
C1835       C  0.07000178  0.70671306  0.41278596    -0.03100
C1836       C  0.05666726  0.72315191  0.42491065    -0.07600
C1837       C  0.02523457  0.71277848  0.42077402     0.06000
C1838       C  0.00754781  0.68460240  0.40545600    -0.02600
Br1839     Br  0.46341543  0.66410094  0.40382470    -0.02300
H1840       H  0.00935444  0.65276537  0.37354483     0.09900
H1841       H  0.06950233  0.74124216  0.44159339     0.07900
Br1842     Br  0.08460579  0.69202704  0.44756395    -0.02700
C1843       C  0.15972246  0.74579558  0.41822394    -0.09400
C1844       C  0.17481063  0.73073462  0.43084059     0.06800
C1845       C  0.16343847  0.70007481  0.42165216    -0.03100
C1846       C  0.13665209  0.68526026  0.40315595    -0.07600
C1847       C  0.12456117  0.70172007  0.38690931     0.06000
C1848       C  0.13763539  0.73293856  0.39426117    -0.02600
Br1849     Br  0.13014646  0.76105273  0.37054278    -0.02300
H1850       H  0.16732218  0.76913421  0.42457277     0.09900
H1851       H  0.12735946  0.66131738  0.39844092     0.07900
Br1852     Br  0.18602779  0.67871182  0.42721818    -0.02700
C1853       C  0.48805863  0.59820441  0.27413823    -0.09400
C1854       C  0.49127480  0.60410247  0.24084937     0.06800
C1855       C  0.02078751  0.62522028  0.22843786    -0.03100
C1856       C  0.04512367  0.64212146  0.24944936    -0.07600
C1857       C  0.04099401  0.63736412  0.28286412     0.06000
C1858       C  0.01261850  0.61353514  0.29483567    -0.02600
Br1859     Br  0.50480062  0.60303167  0.33963575    -0.02300
H1860       H  0.46595347  0.58186654  0.28444322     0.09900
H1861       H  0.06695714  0.65972174  0.23977814     0.07900
Br1862     Br  0.02965400  0.63129342  0.18331066    -0.02700
C1863       C  0.13191266  0.66401799  0.26667565    -0.09400
C1864       C  0.10350824  0.64577675  0.28267381     0.06800
C1865       C  0.08920764  0.61396398  0.27868008    -0.03100
C1866       C  0.10137319  0.60185613  0.25700653    -0.07600
C1867       C  0.13122895  0.61945083  0.24389252     0.06000
C1868       C  0.14724032  0.65088962  0.25082900    -0.02600
Br1869     Br  0.19115697  0.67567965  0.24630242    -0.02300
H1870       H  0.14410128  0.68835393  0.27026449     0.09900
H1871       H  0.08867265  0.57751042  0.25329765     0.07900
Br1872     Br  0.05775409  0.58493243  0.30684248    -0.02700
C1873       C  0.61219363  0.17500952  0.33400995     0.02100
C1874       C  0.59284671  0.16006390  0.30778781     0.02100
C1875       C  0.56435857  0.15940591  0.30527495     0.02100
C1876       C  0.55693924  0.17696994  0.32670599     0.02100
C1877       C  0.57241873  0.18469902  0.35749421     0.02100
C1878       C  0.60243715  0.18711854  0.35938394     0.02100
C1879       C  0.64497928  0.10247244  0.22732721    -0.11100
C1880       C  0.63927759  0.07489867  0.24190419    -0.04900
C1881       C  0.64134832  0.05206187  0.22519065    -0.11000
C1882       C  0.65494863  0.05942339  0.19395312     0.09900
C1883       C  0.66760211  0.08974428  0.18177273    -0.02800
C1884       C  0.66059618  0.11057143  0.19718159     0.09700
C1885       C  0.66956235  0.13864308  0.18183217    -0.12800
C1886       C  0.69059812  0.14887392  0.15650965    -0.12800
C1887       C  0.69905886  0.12934518  0.14150581     0.09700
C1888       C  0.68613900  0.09884583  0.15331271    -0.02800
C1889       C  0.65541659  0.03760915  0.17384681    -0.13000
C1890       C  0.67297160  0.04635302  0.14550124    -0.13000
C1891       C  0.69116994  0.07731656  0.13648194     0.09900
C1892       C  0.71330930  0.08767644  0.11079094    -0.11000
C1893       C  0.72861050  0.11894918  0.10296441    -0.04900
C1894       C  0.71982432  0.13924771  0.11501386    -0.11100
H1895       H  0.66175546  0.15377708  0.19012711     0.07200
H1896       H  0.70031948  0.17250134  0.14920823     0.07200
H1897       H  0.64252345  0.01359224  0.18010572     0.07300
H1898       H  0.67190069  0.02847356  0.13083812     0.07300
H1899       H  0.63059357  0.07014951  0.26636173     0.03800
H1900       H  0.74658822  0.12729207  0.08511331     0.03800
C1901       C  0.96408970  0.08522876  0.22016929    -0.11100
C1902       C  0.94786514  0.05392832  0.22696475    -0.04900
C1903       C  0.92220540  0.03340892  0.20955389    -0.11000
C1904       C  0.91399946  0.04456091  0.18208628     0.09900
C1905       C  0.92859940  0.07654318  0.17592127    -0.02800
C1906       C  0.95249425  0.09700983  0.19617682     0.09700
C1907       C  0.96264270  0.12833097  0.19299133    -0.12800
C1908       C  0.95169838  0.13954672  0.16851613    -0.12800
C1909       C  0.93231994  0.12027870  0.14482252     0.09700
C1910       C  0.91885949  0.08813261  0.14984147    -0.02800
C1911       C  0.89207170  0.02473948  0.16044070    -0.13000
C1912       C  0.88341872  0.03603328  0.13410287    -0.13000
C1913       C  0.89525482  0.06751850  0.12930602     0.09900
C1914       C  0.88468881  0.07911375  0.10418851    -0.11000
C1915       C  0.90160952  0.11029463  0.09714106    -0.04900
C1916       C  0.92506324  0.13169783  0.11673278    -0.11100
H1917       H  0.97887277  0.14436657  0.20968147     0.07200
H1918       H  0.95913648  0.16363567  0.16778806     0.07200
H1919       H  0.88186725  0.00028728  0.16343855     0.07300
H1920       H  0.86693896  0.01983881  0.11769188     0.07300
H1921       H  0.95469989  0.04553165  0.24755307     0.03800
H1922       H  0.89549266  0.11825102  0.07582084     0.03800
C1923       C  0.60965019  0.44764004  0.33343916     0.02100
C1924       C  0.59157829  0.44182037  0.30538569     0.02100
C1925       C  0.56571986  0.41218775  0.30117055     0.02100
C1926       C  0.55565378  0.39077694  0.32766049     0.02100
C1927       C  0.57473499  0.39577823  0.35473939     0.02100
C1928       C  0.60229408  0.42429927  0.35710661     0.02100
C1929       C  0.84421146  0.45006213  0.32891649     0.02100
C1930       C  0.85678205  0.43971592  0.30435420     0.02100
C1931       C  0.85670229  0.41167928  0.30894279     0.02100
C1932       C  0.84325490  0.39346364  0.33675850     0.02100
C1933       C  0.82824724  0.40205394  0.36003780     0.02100
C1934       C  0.82942073  0.43094848  0.35678662     0.02100
C1935       C  0.91984857  0.36670043  0.22660466    -0.11100
C1936       C  0.94446299  0.36503420  0.24096524    -0.04900
C1937       C  0.96259321  0.35586844  0.22415151    -0.11000
C1938       C  0.95008852  0.33795559  0.19710919     0.09900
C1939       C  0.92344295  0.33623448  0.18306491    -0.02800
C1940       C  0.91051160  0.35351614  0.19555322     0.09700
C1941       C  0.88943765  0.35718332  0.17607913    -0.12800
C1942       C  0.87700824  0.33976788  0.14860909    -0.12800
C1943       C  0.88590906  0.31870895  0.13914784     0.09700
C1944       C  0.91069560  0.31833523  0.15556604    -0.02800
C1945       C  0.96285262  0.32117269  0.18428716    -0.13000
C1946       C  0.94875040  0.30160619  0.15924273    -0.13000
C1947       C  0.92381050  0.30111056  0.14355329     0.09900
C1948       C  0.91169266  0.28389678  0.11590885    -0.11000
C1949       C  0.88255164  0.27809604  0.10656441    -0.04900
C1950       C  0.87184139  0.29826552  0.11352119    -0.11100
H1951       H  0.88258575  0.37380533  0.18158619     0.02700
H1952       H  0.86027787  0.34280082  0.13506597     0.07200
H1953       H  0.98314005  0.32196285  0.19393805     0.07300
H1954       H  0.95828144  0.28766288  0.15132005     0.07300
H1955       H  0.95126583  0.37255478  0.26511112     0.03800
H1956       H  0.87014124  0.26120081  0.08884607     0.03800
C1957       C  0.77746714  0.99714288  0.00141628     0.02100
C1958       C  0.77396864  0.01347485  0.02704079     0.02100
C1959       C  0.74517619  0.01215061  0.03191163     0.02100
C1960       C  0.72051270  0.99517712  0.01044795     0.02100
C1961       C  0.72415951  0.47923925  0.98442488     0.02100
C1962       C  0.75292437  0.48047285  0.97994916     0.02100
C1963       C  0.78313157  0.28276848  0.98978000     0.02100
C1964       C  0.77561949  0.26503221  0.01907576     0.02100
C1965       C  0.74806826  0.23674975  0.02141098     0.02100
C1966       C  0.72711553  0.22760800  0.99545955     0.02100
C1967       C  0.73339278  0.24662650  0.96729558     0.02100
C1968       C  0.76292111  0.27370642  0.96252459     0.02100
C1969       C  0.48854158  0.21701705  0.99896899     0.02100
C1970       C  0.97544974  0.22659413  0.02311974     0.02100
C1971       C  0.97663512  0.25505259  0.01961583     0.02100
C1972       C  0.49268107  0.27491823  0.99350782     0.02100
C1973       C  0.50436000  0.26483614  0.96825352     0.02100
C1974       C  0.50259708  0.23574940  0.97097042     0.02100
C1975       C  0.66368304  0.05390228  0.66309102     0.02100
C1976       C  0.67122373  0.07198899  0.63372613     0.02100
C1977       C  0.67493025  0.10199772  0.63635324     0.02100
C1978       C  0.66662414  0.11109837  0.66514762     0.02100
C1979       C  0.65588285  0.09147309  0.69229896     0.02100
C1980       C  0.65730373  0.06406771  0.69264016     0.02100
C1981       C  0.62623569  0.20941560  0.88565777    -0.11100
C1982       C  0.60563349  0.21836359  0.89695513    -0.04900
C1983       C  0.57644968  0.20810281  0.88386868    -0.11000
C1984       C  0.56932593  0.19205767  0.85472916     0.09900
C1985       C  0.59004267  0.18312854  0.84203571    -0.02800
C1986       C  0.61824019  0.19131405  0.85776156     0.09700
C1987       C  0.63726317  0.18080637  0.84518791    -0.12800
C1988       C  0.62712483  0.15954454  0.82097538    -0.12800
C1989       C  0.60116588  0.15346624  0.80303074     0.09700
C1990       C  0.58211910  0.16522036  0.81387813    -0.02800
C1991       C  0.54250381  0.18481734  0.83761166    -0.13000
C1992       C  0.53725518  0.17138352  0.80791748    -0.13000
C1993       C  0.55494026  0.15884406  0.79701206     0.09900
C1994       C  0.54619821  0.13999651  0.76992145    -0.11000
C1995       C  0.56613803  0.12989755  0.75931917    -0.04900
C1996       C  0.59352839  0.13610205  0.77465976    -0.11100
H1997       H  0.65977385  0.18782320  0.85470341     0.07200
H1998       H  0.64071413  0.14891360  0.81564926     0.07200
H1999       H  0.52507902  0.18945216  0.84621562     0.07300
H2000       H  0.51799013  0.16948661  0.79444707     0.07300
H2001       H  0.61127098  0.23167795  0.91849767     0.03800
H2002       H  0.55992789  0.11641085  0.73813408     0.03800
C2003       C  0.57891220  0.36514894  0.88285390    -0.11100
C2004       C  0.60247001  0.38535634  0.90273034    -0.04900
C2005       C  0.62553004  0.41401434  0.89211543    -0.11000
C2006       C  0.62296380  0.42414729  0.86083083     0.09900
C2007       C  0.59645770  0.40590718  0.84209670    -0.02800
C2008       C  0.57514881  0.37570967  0.85231435     0.09700
C2009       C  0.55113137  0.35725688  0.83156242    -0.12800
C2010       C  0.54553529  0.36948551  0.80366054    -0.12800
C2011       C  0.56372448  0.40049767  0.79536201     0.09700
C2012       C  0.59119124  0.41804759  0.81321506    -0.02800
C2013       C  0.64580466  0.45200555  0.84775155    -0.13000
C2014       C  0.64042693  0.46430754  0.82008433    -0.13000
C2015       C  0.61295869  0.44810300  0.80301059     0.09900
C2016       C  0.60634822  0.46121107  0.77632953    -0.11000
C2017       C  0.57843473  0.44423566  0.76026217    -0.04900
C2018       C  0.55608948  0.41447355  0.76943809    -0.11100
H2019       H  0.53601984  0.33333963  0.83700653     0.07200
H2020       H  0.52635505  0.35460841  0.78894992     0.07200
H2021       H  0.66754795  0.46528504  0.85959578     0.07300
H2022       H  0.65786336  0.48699680  0.81275634     0.07300
H2023       H  0.60314093  0.37818972  0.92722967     0.03800
H2024       H  0.57354068  0.45567659  0.74092845     0.03800
C2025       C  0.94062247  0.11108692  0.66074064     0.02100
C2026       C  0.93720759  0.09417527  0.68983724     0.02100
C2027       C  0.90884689  0.06748820  0.69745445     0.02100
C2028       C  0.88450766  0.05683456  0.67468999     0.02100
C2029       C  0.88744594  0.07356406  0.64579693     0.02100
C2030       C  0.91532875  0.10119347  0.63941003     0.02100
C2031       C  0.94932782  0.34102260  0.66905636     0.02100
C2032       C  0.94402519  0.35868043  0.69190925     0.02100
C2033       C  0.91563523  0.35855688  0.69141778     0.02100
C2034       C  0.89466037  0.34398694  0.66575567     0.02100
C2035       C  0.90025790  0.32703607  0.64205469     0.02100
C2036       C  0.92811332  0.32564182  0.64361471     0.02100
C2037       C  0.78422323  0.41713751  0.88482480    -0.11100
C2038       C  0.76778545  0.38527820  0.88819611    -0.04900
C2039       C  0.77696610  0.36698750  0.87241579    -0.11000
C2040       C  0.79916095  0.37995947  0.84751431     0.09900
C2041       C  0.81526282  0.41198381  0.84220680    -0.02800
C2042       C  0.80853180  0.43085675  0.86168367     0.09700
C2043       C  0.82712273  0.46265431  0.85829180    -0.12800
C2044       C  0.85026689  0.47561363  0.83486056    -0.12800
C2045       C  0.85594867  0.45739327  0.81390279     0.09700
C2046       C  0.83933455  0.42516520  0.81868948    -0.02800
C2047       C  0.80593331  0.36156436  0.82821381    -0.13000
C2048       C  0.82823877  0.37424097  0.80410164    -0.13000
C2049       C  0.84646449  0.40599600  0.79993861     0.09900
C2050       C  0.87115653  0.41926392  0.77728833    -0.11000
C2051       C  0.88643197  0.45109335  0.77281664    -0.04900
C2052       C  0.87843540  0.47041127  0.78898703    -0.11100
H2053       H  0.82424060  0.47792839  0.87389809     0.07200
H2054       H  0.86424355  0.50019155  0.83379204     0.07200
H2055       H  0.79328957  0.33700661  0.83104868     0.07300
H2056       H  0.83061446  0.35863580  0.78862843     0.07300
H2057       H  0.75021288  0.37480665  0.90675896     0.03800
H2058       H  0.90416244  0.46089336  0.75459331     0.03800
C2059       C  0.51282793  0.23197777  0.43387830    -0.11100
C2060       C  0.52369494  0.26106930  0.41999493    -0.04900
C2061       C  0.52231328  0.28484358  0.43598339    -0.11000
C2062       C  0.50862218  0.27821713  0.46735558     0.09900
C2063       C  0.49359008  0.24763834  0.47961013    -0.02800
C2064       C  0.49580889  0.22461661  0.46276012     0.09700
C2065       C  0.48082127  0.19475567  0.47522947    -0.12800
C2066       C  0.96136525  0.18685006  0.50152707    -0.12800
C2067       C  0.96177255  0.20924776  0.52111841     0.09700
C2068       C  0.97780820  0.24021817  0.50981795    -0.02800
C2069       C  0.51061421  0.30114017  0.48754307    -0.13000
C2070       C  0.99567306  0.29403678  0.51744035    -0.13000
C2071       C  0.97822633  0.26367273  0.52859265     0.09900
C2072       C  0.96235737  0.25594673  0.55859706    -0.11000
C2073       C  0.94817276  0.22558991  0.56933444    -0.04900
C2074       C  0.94714248  0.20182463  0.55174330    -0.11100
H2075       H  0.48290105  0.17672838  0.46426345     0.07200
H2076       H  0.94636115  0.16286178  0.50628373     0.07200
H2077       H  0.52407674  0.32492470  0.48051763     0.07300
H2078       H  0.99839174  0.31269804  0.53200121     0.07300
H2079       H  0.53479078  0.26546218  0.39670146     0.03800
H2080       H  0.93768819  0.22037273  0.59277288     0.03800
C2081       C  0.70501138  0.24959166  0.44807639    -0.11100
C2082       C  0.72509692  0.27865796  0.43529570    -0.04900
C2083       C  0.75607568  0.29585015  0.44399823    -0.11000
C2084       C  0.76638950  0.28547221  0.47076745     0.09900
C2085       C  0.74501902  0.25852940  0.48782347    -0.02800
C2086       C  0.71463249  0.24018333  0.47589386     0.09700
C2087       C  0.69472146  0.21306234  0.49226263    -0.12800
C2088       C  0.70477087  0.20280301  0.51805885    -0.12800
C2089       C  0.73336128  0.22158323  0.53237817     0.09700
C2090       C  0.75411668  0.24958092  0.51668867    -0.02800
C2091       C  0.79724805  0.30034485  0.48067415    -0.13000
C2092       C  0.80603629  0.29162567  0.50906862    -0.13000
C2093       C  0.78435125  0.26788289  0.52893312     0.09900
C2094       C  0.79187715  0.26092374  0.55997932    -0.11000
C2095       C  0.76940504  0.23455260  0.57610541    -0.04900
C2096       C  0.74200442  0.21329003  0.56166645    -0.11100
H2097       H  0.67124070  0.19889547  0.48471683     0.07200
H2098       H  0.68930065  0.17992172  0.52635238     0.07200
H2099       H  0.81501421  0.31885118  0.46660072     0.07300
H2100       H  0.83003894  0.30393574  0.51551891     0.07300
H2101       H  0.71700961  0.28767380  0.41636777     0.03800
H2102       H  0.77392633  0.22940048  0.60014320     0.03800
C2103       C  0.71057854  0.46422864  0.43750994    -0.11100
C2104       C  0.73673978  0.46626346  0.42261463    -0.04900
C2105       C  0.76376694  0.47302103  0.43927081    -0.11000
C2106       C  0.76759342  0.48549537  0.47041934     0.09900
C2107       C  0.74310805  0.48798274  0.48476157    -0.02800
C2108       C  0.71394538  0.47507322  0.46948136     0.09700
C2109       C  0.68926642  0.47379662  0.48681940    -0.12800
C2110       C  0.69422189  0.99130494  0.51371650    -0.12800
C2111       C  0.72283823  0.00542226  0.52867994     0.09700
C2112       C  0.74727715  0.00238046  0.51510881    -0.02800
C2113       C  0.79506162  0.49614286  0.48744602    -0.13000
C2114       C  0.79986228  0.01206518  0.51590288    -0.13000
C2115       C  0.77608236  0.01471328  0.53101859     0.09900
C2116       C  0.77991422  0.02924748  0.56129039    -0.11000
C2117       C  0.75495999  0.03150542  0.57370756    -0.04900
C2118       C  0.72737239  0.02161524  0.55733595    -0.11100
H2119       H  0.66569981  0.45967998  0.47983973     0.07200
H2120       H  0.67487346  0.99262820  0.52316653     0.07200
H2121       H  0.81368670  0.49334260  0.47835115     0.07300
H2122       H  0.82281530  0.02267187  0.52535996     0.07300
H2123       H  0.73574933  0.46089235  0.39755549     0.03800
H2124       H  0.75693350  0.04164252  0.59679861     0.03800
O2125       O  0.51532209  0.46368215  0.02828498    -0.88500
C2126       C  0.56108955  0.03054265  0.95991142     0.87500
Mg2127     Mg  0.96890088  0.42855750  0.02246072     1.58100
O2128       O  0.53864703  0.05464792  0.02892956    -0.88300
O2129       O  0.54451590  0.99978599  0.06100872    -0.75600
C2130       C  0.89242147  0.99781761  0.98258452     0.92500
O2131       O  0.50742103  0.45832078  0.95108256    -0.75400
O2132       O  0.89231506  0.47287158  0.97952190    -0.82900
Mg2133     Mg  0.54549186  0.47061937  0.98823454     1.58000
C2134       C  0.49412053  0.10607700  0.01285748     0.92500
O2135       O  0.58530373  0.48000925  0.02129275    -0.81200
H2136       H  0.53928463  0.06077324  0.07618156    -0.06500
C2137       C  0.98061528  0.03234384  0.95169579     0.87400
O2138       O  0.95093709  0.45368446  0.05358317    -0.75700
O2139       O  0.55666031  0.01795894  0.98653314    -0.88500
O2140       O  0.52020903  0.10770170  0.00901994    -0.81300
C2141       C  0.61025864  0.11384319  0.99832042     0.92600
C2142       C  0.61066397  0.00438729  0.02508440     0.92400
Mg2143     Mg  0.95899267  0.03314207  0.01883361     1.58000
O2144       O  0.91711492  0.02269526  0.98724235    -0.81200
O2145       O  0.99770022  0.04669433  0.05573419    -0.75400
O2146       O  0.60973880  0.08903028  0.00609321    -0.81300
O2147       O  0.53414489  0.42071494  0.98928030    -0.83000
O2148       O  0.89747342  0.41882644  0.00459332    -0.81300
C2149       C  0.52604754  0.05459115  0.05440734     0.86900
O2150       O  0.94889918  0.48697192  0.02126834    -0.88400
O2151       O  0.98961071  0.04078149  0.97915129    -0.88600
O2152       O  0.96037168  0.50500332  0.94617816    -0.75600
Mg2153     Mg  0.57458749  0.04273695  0.02995821     1.58000
O2154       O  0.58570428  0.11438390  0.99166858    -0.83000
H2155       H  0.51429184  0.45646553  0.07564175    -0.06700
O2156       O  0.96743690  0.45147497  0.97892060    -0.88300
H2157       H  0.96557009  0.44497983  0.93166584    -0.06500
H2158       H  0.93532988  0.48208952  0.06711663    -0.06700
C2159       C  0.97927389  0.45100027  0.95311555     0.86800
C2160       C  0.52429823  0.47238660  0.05567948     0.87400
C2161       C  0.94442356  0.47458993  0.04798495     0.87500
H2162       H  0.99057844  0.04844535  0.93187331    -0.06700
O2163       O  0.55446640  0.05141957  0.95447373    -0.75700
Mg2164     Mg  0.93108608  0.46246590  0.97808366     1.58000
H2165       H  0.57025823  0.02323477  0.94067529    -0.06700
C2166       C  0.00799029  0.39668830  0.99150266     0.92500
O2167       O  0.92042329  0.39151312  0.01393284    -0.82900
C2168       C  0.89644431  0.39341658  0.00875316     0.92500
O2169       O  0.61207840  0.03006269  0.02816757    -0.82900
Mg2170     Mg  0.53631960  0.07679883  0.98503167     1.58200
O2171       O  0.98395568  0.39793763  0.99856251    -0.81300
O2172       O  0.96927978  0.08096563  0.01518841    -0.83000
O2173       O  0.84908055  0.13064879  0.35366639    -0.88500
C2174       C  0.88284011  0.19784949  0.28308348     0.87500
Mg2175     Mg  0.80201104  0.09436294  0.35139583     1.58100
O2176       O  0.86925457  0.21914739  0.35874922    -0.88300
O2177       O  0.88166884  0.16726894  0.38385578    -0.75600
C2178       C  0.72237323  0.16534251  0.33012667     0.92500
O2179       O  0.83125929  0.12227440  0.27814806    -0.75400
O2180       O  0.72168478  0.14055548  0.32353708    -0.82900
Mg2181     Mg  0.87436301  0.13846510  0.30937299     1.58000
C2182       C  0.82931530  0.27351776  0.35698230     0.92500
O2183       O  0.92073487  0.15310232  0.33294503    -0.81200
H2184       H  0.87787799  0.22565739  0.40561229    -0.06500
C2185       C  0.80565901  0.20015277  0.29143923     0.87400
O2186       O  0.78653132  0.11835144  0.38762418    -0.75700
O2187       O  0.88206413  0.18486260  0.30875187    -0.88500
O2188       O  0.85345161  0.27142733  0.35575613    -0.81300
C2189       C  0.93671378  0.28028425  0.32143156     0.92600
C2190       C  0.94477420  0.17921773  0.33367132     0.92400
Mg2191     Mg  0.79162404  0.20004356  0.36199027     1.58000
O2192       O  0.74713775  0.18902943  0.33763911    -0.81200
O2193       O  0.83390127  0.21282085  0.39335663    -0.75400
O2194       O  0.93511178  0.25447022  0.32274883    -0.81300
O2195       O  0.86609458  0.08961158  0.31349849    -0.83000
O2196       O  0.72796508  0.08332929  0.34200173    -0.81300
C2197       C  0.86132160  0.21968514  0.38661193     0.86900
O2198       O  0.78099769  0.15286194  0.36081339    -0.88400
O2199       O  0.81698370  0.20804005  0.31822642    -0.88600
O2200       O  0.78593136  0.17268880  0.28591419    -0.75600
Mg2201     Mg  0.90532498  0.21012421  0.35077765     1.58000
O2202       O  0.91249988  0.28227374  0.32267784    -0.83000
H2203       H  0.85464279  0.12362722  0.39990536    -0.06700
O2204       O  0.79606078  0.11831161  0.31156027    -0.88300
H2205       H  0.78713656  0.10819916  0.26528021    -0.06500
H2206       H  0.77224241  0.14557686  0.40787798    -0.06700
C2207       C  0.80384274  0.11580830  0.28426796     0.86800
C2208       C  0.86144282  0.13958242  0.37987032     0.87400
C2209       C  0.77943118  0.13927457  0.38624737     0.87500
H2210       H  0.81342687  0.21683810  0.27202990    -0.06700
O2211       O  0.87676034  0.21952839  0.28183715    -0.75700
Mg2212     Mg  0.75983059  0.12931872  0.31710219     1.58000
H2213       H  0.88867808  0.19056483  0.26125233    -0.06700
C2214       C  0.84102801  0.06458402  0.31759137     0.92500
O2215       O  0.75244024  0.05675654  0.34594165    -0.82900
C2216       C  0.72774935  0.05801338  0.34360047     0.92500
O2217       O  0.94360235  0.20280101  0.34030463    -0.82900
Mg2218     Mg  0.86354555  0.24389784  0.32015207     1.58200
O2219       O  0.81569043  0.06451253  0.32133360    -0.81300
O2220       O  0.80286225  0.24986963  0.35926859    -0.83000
O2221       O  0.65085571  0.36920186  0.70705879    -0.88500
C2222       C  0.60929710  0.30889372  0.63545927     0.87500
Mg2223     Mg  0.69755469  0.40467217  0.70448370     1.58100
O2224       O  0.62619943  0.27907068  0.70442983    -0.88300
O2225       O  0.61900302  0.33150791  0.73832737    -0.75600
C2226       C  0.77566036  0.33726636  0.66539995     0.92500
O2227       O  0.66429782  0.37983327  0.63066057    -0.75400
O2228       O  0.77608391  0.36255439  0.66301181    -0.82900
Mg2229     Mg  0.62369889  0.36527669  0.66557979     1.58000
C2230       C  0.66788870  0.22557468  0.68571982     0.92500
O2231       O  0.58187497  0.35423315  0.69634962    -0.81200
H2232       H  0.62160840  0.26789840  0.75111159    -0.06500
C2233       C  0.69001372  0.30660229  0.63088936     0.87400
O2234       O  0.71272220  0.37647153  0.73580320    -0.75700
O2235       O  0.61201142  0.31881266  0.66276643    -0.88500
O2236       O  0.64308985  0.22677322  0.68492225    -0.81300
C2237       C  0.55597873  0.22505768  0.66757087     0.92600
C2238       C  0.55593850  0.33010829  0.69882874     0.92400
Mg2239     Mg  0.70585553  0.29856824  0.69823714     1.58000
O2240       O  0.75066256  0.31229887  0.66999339    -0.81200
O2241       O  0.66434884  0.28229559  0.73278652    -0.75400
O2242       O  0.55766208  0.24933577  0.67775315    -0.81300
O2243       O  0.63524369  0.41394746  0.66745870    -0.83000
O2244       O  0.77163084  0.41795348  0.68831981    -0.81300
C2245       C  0.63649281  0.27587388  0.73019452     0.86900
O2246       O  0.71754149  0.34568818  0.70331057    -0.88400
O2247       O  0.67857992  0.29591906  0.65748904    -0.88600
O2248       O  0.71106648  0.33418622  0.62731299    -0.75600
Mg2249     Mg  0.59082897  0.29144520  0.70500511     1.58000
O2250       O  0.58009695  0.22318146  0.66223090    -0.83000
H2251       H  0.64880621  0.37371762  0.75436026    -0.06700
O2252       O  0.70250886  0.38553273  0.66065630    -0.88300
H2253       H  0.70753889  0.39492098  0.61356750    -0.06500
H2254       H  0.72677982  0.34668073  0.75002682    -0.06700
C2255       C  0.69236735  0.38746442  0.63426110     0.86800
C2256       C  0.63991075  0.35903357  0.73396812     0.87400
C2257       C  0.71954200  0.35584812  0.73041310     0.87500
H2258       H  0.68161419  0.29231680  0.61015529    -0.06700
O2259       O  0.61638363  0.28871579  0.62901149    -0.75700
Mg2260     Mg  0.73844404  0.37423145  0.66121013     1.58000
H2261       H  0.60167307  0.31831826  0.61644823    -0.06700
C2262       C  0.66074091  0.43812850  0.67099667     0.92500
O2263       O  0.74655911  0.44233079  0.70038443    -0.82900
C2264       C  0.77155979  0.44239482  0.69536152     0.92500
O2265       O  0.55347664  0.30401246  0.70243990    -0.82900
Mg2266     Mg  0.63088011  0.26026495  0.65997354     1.58200
O2267       O  0.68469206  0.43740622  0.67970560    -0.81300
O2268       O  0.69367489  0.24950962  0.68981271    -0.83000
C2269       C  0.52818677  0.34715837  0.66371427    -0.09400
C2270       C  0.52847310  0.33254706  0.69248183     0.06800
C2271       C  0.50215443  0.31891388  0.71217366    -0.03100
C2272       C  0.97647616  0.32130833  0.70347356    -0.07600
C2273       C  0.97637768  0.33668676  0.67496360     0.06000
C2274       C  0.50236309  0.34886904  0.65445879    -0.02600
Br2275     Br  0.50452248  0.36762709  0.61346307    -0.02300
H2276       H  0.54807095  0.35668992  0.64782758     0.09900
H2277       H  0.95648690  0.31144786  0.71919926     0.07900
Br2278     Br  0.50067447  0.29802577  0.75149460    -0.02700
C2279       C  0.83070078  0.36258335  0.64927272    -0.09400
C2280       C  0.80540892  0.33752619  0.66414376     0.06800
C2281       C  0.81014131  0.31527184  0.68020720    -0.03100
C2282       C  0.83947692  0.31837871  0.68071676    -0.07600
C2283       C  0.86456828  0.34333490  0.66577928     0.06000
C2284       C  0.86002156  0.36574036  0.64984956    -0.02600
Br2285     Br  0.89200353  0.40038595  0.62671462    -0.02300
H2286       H  0.82769739  0.37998145  0.63696529     0.09900
H2287       H  0.84281667  0.30113151  0.69290892     0.07900
Br2288     Br  0.77853407  0.28106785  0.70383744    -0.02700
C2289       C  0.90736100  0.40111070  0.70689496    -0.09400
C2290       C  0.90778904  0.37476460  0.71642422     0.06800
C2291       C  0.89513258  0.36187900  0.74692251    -0.03100
C2292       C  0.88567283  0.37746855  0.76788668    -0.07600
C2293       C  0.88178330  0.40182292  0.75637397     0.06000
C2294       C  0.89042475  0.41120186  0.72420608    -0.02600
Br2295     Br  0.87256790  0.43081641  0.70021964    -0.02300
H2296       H  0.91700477  0.41159888  0.68401399     0.09900
H2297       H  0.87963698  0.36926315  0.79238903     0.07900
Br2298     Br  0.88604797  0.32146704  0.75913050    -0.02700
C2299       C  0.86537649  0.32566951  0.59718854    -0.09400
C2300       C  0.87555980  0.30974316  0.61720744     0.06800
C2301       C  0.85922147  0.27768221  0.61572444    -0.03100
C2302       C  0.83466572  0.26305289  0.59428603    -0.07600
C2303       C  0.82244955  0.27897502  0.57693887     0.06000
C2304       C  0.83776834  0.31093291  0.58011277    -0.02600
Br2305     Br  0.81987342  0.33550989  0.56754382    -0.02300
H2306       H  0.87806128  0.35003420  0.59628846     0.09900
H2307       H  0.82363108  0.23856737  0.59312276     0.07900
Br2308     Br  0.86642175  0.25224771  0.64498164    -0.02700
C2309       C  0.94383914  0.28656094  0.63246441    -0.09400
C2310       C  0.93516079  0.30726139  0.62013955     0.06800
C2311       C  0.93732270  0.31231739  0.58641082    -0.03100
C2312       C  0.94637744  0.29582308  0.56651112    -0.07600
C2313       C  0.95751175  0.27726815  0.57948265     0.06000
C2314       C  0.95811517  0.27479371  0.61326892    -0.02600
Br2315     Br  0.48016861  0.25765059  0.63508653    -0.02300
H2316       H  0.94169731  0.28122268  0.65785498     0.09900
H2317       H  0.94524765  0.29805501  0.54077881     0.07900
Br2318     Br  0.93228815  0.34380308  0.56594713    -0.02700
C2319       C  0.82842736  0.47217430  0.68551309    -0.09400
C2320       C  0.80113256  0.47192723  0.69456092     0.06800
C2321       C  0.80225255  0.50033324  0.69826159    -0.03100
C2322       C  0.82882075  0.02735659  0.68940038    -0.07600
C2323       C  0.85584045  0.02736681  0.68079841     0.06000
C2324       C  0.85576948  0.49959020  0.67961935    -0.02600
Br2325     Br  0.89264981  0.49868334  0.66881772    -0.02300
H2326       H  0.82844313  0.45097812  0.68243925     0.09900
H2327       H  0.82893630  0.04880281  0.69092968     0.07900
Br2328     Br  0.76992314  0.00487301  0.71759435    -0.02700
C2329       C  0.97090139  0.16518537  0.67686191    -0.09400
C2330       C  0.96873520  0.14228324  0.65664404     0.06800
C2331       C  0.49498000  0.14875489  0.63763555    -0.03100
C2332       C  0.52244360  0.17620332  0.64094779    -0.07600
C2333       C  0.52508688  0.19808391  0.66263499     0.06000
C2334       C  0.49853228  0.19267760  0.68020958    -0.02600
Br2335     Br  0.99858871  0.21999441  0.71171887    -0.02300
H2336       H  0.95130947  0.16083332  0.69170492     0.09900
H2337       H  0.54235344  0.18014585  0.62690127     0.07900
Br2338     Br  0.49777907  0.12197530  0.60791871    -0.02700
C2339       C  0.87142408  0.51488672  0.77027818    -0.09400
C2340       C  0.89087246  0.50234721  0.77508148     0.06800
C2341       C  0.92034935  0.51804245  0.76035977    -0.03100
C2342       C  0.92598512  0.03879318  0.73505713    -0.07600
C2343       C  0.90508024  0.04899290  0.72788566     0.06000
C2344       C  0.88006115  0.03997582  0.74931162    -0.02600
Br2345     Br  0.85939879  0.06318998  0.75323863    -0.02300
H2346       H  0.84922014  0.50505569  0.78206196     0.09900
H2347       H  0.94671782  0.04668205  0.72093999     0.07900
Br2348     Br  0.95404655  0.51279669  0.77437397    -0.02700
C2349       C  0.84350377  0.07756419  0.62101944    -0.09400
C2350       C  0.86071594  0.06254196  0.62293134     0.06800
C2351       C  0.85132764  0.03669485  0.60378046    -0.03100
C2352       C  0.82415238  0.02509642  0.58601906    -0.07600
C2353       C  0.80868106  0.04175638  0.58151867     0.06000
C2354       C  0.81984251  0.06927435  0.59869810    -0.02600
Br2355     Br  0.80610537  0.09835936  0.59135242    -0.02300
H2356       H  0.84878891  0.09636878  0.63646153     0.09900
H2357       H  0.81575781  0.50324220  0.57487321     0.07900
Br2358     Br  0.87583126  0.51781084  0.59795770    -0.02700
C2359       C  0.90506309  0.14100847  0.61578501    -0.09400
C2360       C  0.91744485  0.12172824  0.61232112     0.06800
C2361       C  0.93414558  0.12460612  0.58430136    -0.03100
C2362       C  0.94584969  0.15151859  0.56587532    -0.07600
C2363       C  0.93306999  0.17090393  0.56856691     0.06000
C2364       C  0.90902248  0.16210221  0.59157237    -0.02600
Br2365     Br  0.87969772  0.17632160  0.59034837    -0.02300
H2366       H  0.89164309  0.13922721  0.63682822     0.09900
H2367       H  0.96476633  0.15660159  0.54984092     0.07900
Br2368     Br  0.93546057  0.09036319  0.56697669    -0.02700
C2369       C  0.52594382  0.40820759  0.71849604    -0.09400
C2370       C  0.52560834  0.40057536  0.75139430     0.06800
C2371       C  0.99606159  0.38399183  0.76622409    -0.03100
C2372       C  0.96919013  0.37103583  0.74741011    -0.07600
C2373       C  0.97009014  0.37817804  0.71450571     0.06000
C2374       C  0.99880983  0.39983897  0.70154229    -0.02600
Br2375     Br  0.50167704  0.41976897  0.66118068    -0.02300
H2376       H  0.54743981  0.42176736  0.70568636     0.09900
H2377       H  0.94774788  0.35545503  0.75885205     0.07900
Br2378     Br  0.98988441  0.38146446  0.81184229    -0.02700
C2379       C  0.51863035  0.12701358  0.71767535    -0.09400
C2380       C  0.51708811  0.13008615  0.75103409     0.06800
C2381       C  0.98722304  0.11853752  0.76486251    -0.03100
C2382       C  0.96179084  0.11015813  0.74477313    -0.07600
C2383       C  0.96398212  0.10516150  0.71205377     0.06000
C2384       C  0.99210682  0.10944395  0.70060431    -0.02600
Br2385     Br  0.49336375  0.08163035  0.67089885    -0.02300
H2386       H  0.54025525  0.13418337  0.70548246     0.09900
H2387       H  0.93973051  0.10443815  0.75520933     0.07900
Br2388     Br  0.97803005  0.10721417  0.80942246    -0.02700
C2389       C  0.64080345  0.14260316  0.66539801    -0.09400
C2390       C  0.66816712  0.14149157  0.66738641     0.06800
C2391       C  0.69533979  0.16806421  0.67566700    -0.03100
C2392       C  0.69464009  0.19492268  0.68174246    -0.07600
C2393       C  0.66701289  0.19599499  0.68026779     0.06000
C2394       C  0.63984336  0.16920193  0.67142897    -0.02600
Br2395     Br  0.60024227  0.16618056  0.66639705    -0.02300
H2396       H  0.61967659  0.12222721  0.65963092     0.09900
H2397       H  0.71586607  0.21494008  0.68824728     0.07900
Br2398     Br  0.73335211  0.16815888  0.68174556    -0.02700
C2399       C  0.68970597  0.02273390  0.65823361    -0.09400
C2400       C  0.66262492  0.02391627  0.66371567     0.06800
C2401       C  0.63472848  0.49649789  0.66883741    -0.03100
C2402       C  0.63471717  0.46895390  0.67095605    -0.07600
C2403       C  0.66198025  0.46780280  0.66682276     0.06000
C2404       C  0.68954788  0.49498976  0.65941760    -0.02600
Br2405     Br  0.72682192  0.99548917  0.64745380    -0.02300
H2406       H  0.71094629  0.04351482  0.65257163     0.09900
H2407       H  0.61312483  0.44828902  0.67577355     0.07900
Br2408     Br  0.59568641  0.49500202  0.67003875    -0.02700
C2409       C  0.65551362  0.00570044  0.75333726    -0.09400
C2410       C  0.62545574  0.49371470  0.76585364     0.06800
C2411       C  0.61080804  0.51101065  0.76191286    -0.03100
C2412       C  0.62138913  0.03354781  0.73839619    -0.07600
C2413       C  0.64998617  0.04456020  0.72306334     0.06000
C2414       C  0.66881731  0.03281437  0.73456257    -0.02600
Br2415     Br  0.71220403  0.05296599  0.72595935    -0.02300
H2416       H  0.66825905  0.99380271  0.75731592     0.09900
H2417       H  0.60492165  0.03930478  0.73049562     0.07900
Br2418     Br  0.57320063  0.50148736  0.78398700    -0.02700
C2419       C  0.65859156  0.12519164  0.73769472    -0.09400
C2420       C  0.64102724  0.09954509  0.71879682     0.06800
C2421       C  0.60893238  0.08713780  0.71938104    -0.03100
C2422       C  0.59527473  0.09505596  0.74353185    -0.07600
C2423       C  0.61195844  0.12304044  0.75934346     0.06000
C2424       C  0.64441004  0.13913520  0.75428965    -0.02600
Br2425     Br  0.66999903  0.18203788  0.76146593    -0.02300
H2426       H  0.68338362  0.13706847  0.73529603     0.09900
H2427       H  0.57063003  0.08114071  0.74659407     0.07900
Br2428     Br  0.58257203  0.06078103  0.68644857    -0.02700
C2429       C  0.66086668  0.02748482  0.59657308    -0.09400
C2430       C  0.67587633  0.05925199  0.60177560     0.06800
C2431       C  0.69972173  0.07670133  0.57941243    -0.03100
C2432       C  0.71715690  0.06432472  0.56706690    -0.07600
C2433       C  0.70643574  0.03285733  0.56911700     0.06000
C2434       C  0.67668949  0.01401122  0.58219103    -0.02600
Br2435     Br  0.65834421  0.47041329  0.58494937    -0.02300
H2436       H  0.63863786  0.01277500  0.60745981     0.09900
H2437       H  0.73721735  0.07862586  0.55230735     0.07900
Br2438     Br  0.69180272  0.09851820  0.54597928    -0.02700
C2439       C  0.69208825  0.16975816  0.58384493    -0.09400
C2440       C  0.72389768  0.18274330  0.57813545     0.06800
C2441       C  0.73849193  0.16629213  0.58887695    -0.03100
C2442       C  0.72216870  0.13974297  0.60750867    -0.07600
C2443       C  0.69026352  0.12620191  0.61138115     0.06000
C2444       C  0.67498838  0.14026159  0.59677058    -0.02600
Br2445     Br  0.63114009  0.11918852  0.59222906    -0.02300
H2446       H  0.68014770  0.18193662  0.57718361     0.09900
H2447       H  0.73425270  0.12905006  0.61826895     0.07900
Br2448     Br  0.77991858  0.17731147  0.57745766    -0.02700
C2449       C  0.50869923  0.18587631  0.02590084    -0.09400
C2450       C  0.48822473  0.18753161  0.00387124     0.06800
C2451       C  0.96932691  0.16183288  0.98568688    -0.03100
C2452       C  0.97098928  0.13521150  0.98994366    -0.07600
C2453       C  0.49184023  0.13391432  0.01156293     0.06000
C2454       C  0.51067383  0.15941118  0.02977258    -0.02600
Br2455     Br  0.53894023  0.15888799  0.06036676    -0.02300
H2456       H  0.52463626  0.20590871  0.03871530     0.09900
H2457       H  0.95664954  0.11569889  0.97544258     0.07900
Br2458     Br  0.94201500  0.16226481  0.95376241    -0.02700
C2459       C  0.97268975  0.31099764  0.98594642    -0.09400
C2460       C  0.49754087  0.30663425  0.99295109     0.06800
C2461       C  0.52640334  0.33232359  0.99896188    -0.03100
C2462       C  0.52997058  0.36170723  0.99694592    -0.07600
C2463       C  0.00510413  0.36605116  0.98870614     0.06000
C2464       C  0.97649588  0.34012708  0.98218689    -0.02600
Br2465     Br  0.94224728  0.34254804  0.96509649    -0.02300
H2466       H  0.95033588  0.29151822  0.98172995     0.09900
H2467       H  0.55195409  0.38106711  0.00290463     0.07900
Br2468     Br  0.56068096  0.32814143  0.01280839    -0.02700
C2469       C  0.52649551  0.32421315  0.90064039    -0.09400
C2470       C  0.55801976  0.33446044  0.89727577     0.06800
C2471       C  0.57039953  0.31824382  0.91356364    -0.03100
C2472       C  0.55272304  0.29588442  0.93644871    -0.07600
C2473       C  0.52151401  0.28653252  0.94105733     0.06000
C2474       C  0.50793267  0.29935153  0.92083374    -0.02600
Br2475     Br  0.96426183  0.28289637  0.91774762    -0.02300
H2476       H  0.51629763  0.33596850  0.88820391     0.09900
H2477       H  0.56358609  0.28599059  0.95098847     0.07900
Br2478     Br  0.61176033  0.32644184  0.90631704    -0.02700
C2479       C  0.53610768  0.22459540  0.89269562    -0.09400
C2480       C  0.55409725  0.21221760  0.90426492     0.06800
C2481       C  0.55283261  0.20599951  0.93743219    -0.03100
C2482       C  0.53984175  0.21779760  0.95808075    -0.07600
C2483       C  0.51893397  0.22658205  0.94691311     0.06000
C2484       C  0.51545517  0.22741080  0.91327649    -0.02600
Br2485     Br  0.48134213  0.22831007  0.89389447    -0.02300
H2486       H  0.53714832  0.23130208  0.86780494     0.09900
H2487       H  0.54533865  0.21881247  0.98307365     0.07900
Br2488     Br  0.56574352  0.17906716  0.95556935    -0.02700
C2489       C  0.66790515  0.14261693  0.99292461    -0.09400
C2490       C  0.64021652  0.14292664  0.99800769     0.06800
C2491       C  0.64190455  0.17121283  0.00382472    -0.03100
C2492       C  0.67006318  0.19815916  0.00208814    -0.07600
C2493       C  0.69762556  0.19784198  0.99775109     0.06000
C2494       C  0.69640862  0.16970709  0.99294651    -0.02600
Br2495     Br  0.73278328  0.16782455  0.98281146    -0.02300
H2496       H  0.66740228  0.12132519  0.98845145     0.09900
H2497       H  0.67066089  0.21969385  0.00527632     0.07900
Br2498     Br  0.60782139  0.17499201  0.01860637    -0.02700
C2499       C  0.81149193  0.33589166  0.00779073    -0.09400
C2500       C  0.81176293  0.31249376  0.99037509     0.06800
C2501       C  0.83991209  0.31593548  0.97913525    -0.03100
C2502       C  0.86706547  0.34256237  0.98573503    -0.07600
C2503       C  0.86701288  0.36545631  0.00421182     0.06000
C2504       C  0.83886196  0.36220272  0.01498656    -0.02600
Br2505     Br  0.83655554  0.39169064  0.04152584    -0.02300
H2506       H  0.78995724  0.33289886  0.01719010     0.09900
H2507       H  0.88842742  0.34534689  0.97644266     0.07900
Br2508     Br  0.84293419  0.28418528  0.95682121    -0.02700
C2509       C  0.75291349  0.28620585  0.90330222    -0.09400
C2510       C  0.77176018  0.29350870  0.93089050     0.06800
C2511       C  0.79818936  0.32267011  0.92823746    -0.03100
C2512       C  0.79485181  0.34638836  0.91557581    -0.07600
C2513       C  0.77356912  0.34024868  0.89116513     0.06000
C2514       C  0.75304086  0.30958788  0.88398276    -0.02600
Br2515     Br  0.72395918  0.29903553  0.85010568    -0.02300
H2516       H  0.73757427  0.26299570  0.89683476     0.09900
H2517       H  0.81367345  0.36949708  0.91802488     0.07900
Br2518     Br  0.83196352  0.32526014  0.90372236    -0.02700
C2519       C  0.69332940  0.20951098  0.93006605    -0.09400
C2520       C  0.70728417  0.23816206  0.94458610     0.06800
C2521       C  0.69416387  0.25698861  0.93960594    -0.03100
C2522       C  0.67019605  0.24844250  0.91777199    -0.07600
C2523       C  0.65484069  0.21886604  0.90502902     0.06000
C2524       C  0.66522215  0.19848216  0.91445304    -0.02600
Br2525     Br  0.63975944  0.15486122  0.91309697    -0.02300
H2526       H  0.70250056  0.19434057  0.93395983     0.09900
H2527       H  0.66249120  0.26457738  0.91217058     0.07900
Br2528     Br  0.70810698  0.29449548  0.96184138    -0.02700
C2529       C  0.82577788  0.01250518  0.96942911    -0.09400
C2530       C  0.80733393  0.99750246  0.99657181     0.06800
C2531       C  0.81632469  0.48112529  0.01737204    -0.03100
C2532       C  0.84368331  0.48090855  0.01147410    -0.07600
C2533       C  0.86275861  0.99710668  0.98531151     0.06000
C2534       C  0.85369066  0.01303463  0.96412150    -0.02600
Br2535     Br  0.87814887  0.03492936  0.92737468    -0.02300
H2536       H  0.81848935  0.02405186  0.95244374     0.09900
H2537       H  0.85037662  0.46832396  0.02777068     0.07900
Br2538     Br  0.79102266  0.45680121  0.05272422    -0.02700
C2539       C  0.68967039  0.02067197  0.99962280    -0.09400
C2540       C  0.69149686  0.99636691  0.01412126     0.06800
C2541       C  0.66631667  0.47447102  0.03238804    -0.03100
C2542       C  0.64054056  0.47801514  0.03707571    -0.07600
C2543       C  0.63919349  0.00283878  0.02307467     0.06000
C2544       C  0.66360356  0.02359382  0.00314982    -0.02600
Br2545     Br  0.66106249  0.05383898  0.97667832    -0.02300
H2546       H  0.70843923  0.03711956  0.98463934     0.09900
H2547       H  0.62124370  0.46102165  0.05110814     0.07900
Br2548     Br  0.66549669  0.43881400  0.04998604    -0.02700
C2549       C  0.68653420  0.47775658  0.94314840    -0.09400
C2550       C  0.69831626  0.46215330  0.96129652     0.06800
C2551       C  0.68515288  0.43052552  0.95694932    -0.03100
C2552       C  0.66377207  0.41629865  0.93257280    -0.07600
C2553       C  0.65133121  0.43176008  0.91504034     0.06000
C2554       C  0.66145144  0.46237178  0.92277612    -0.02600
Br2555     Br  0.63945904  0.48313987  0.91060944    -0.02300
H2556       H  0.69633901  0.50202284  0.94520878     0.09900
H2557       H  0.65553651  0.39238440  0.92860416     0.07900
Br2558     Br  0.69260231  0.90490314  0.98571337    -0.02700
C2559       C  0.76501221  0.44059841  0.96349315    -0.09400
C2560       C  0.75784602  0.46308508  0.95402931     0.06800
C2561       C  0.76021716  0.47126092  0.92118745    -0.03100
C2562       C  0.76827009  0.45592986  0.89865773    -0.07600
C2563       C  0.77690030  0.43447071  0.90862454     0.06000
C2564       C  0.77617459  0.42782455  0.94174555    -0.02600
Br2565     Br  0.79287624  0.40387324  0.95967057    -0.02300
H2566       H  0.76381542  0.43435710  0.98859052     0.09900
H2567       H  0.76871896  0.46145712  0.87340569     0.07900
Br2568     Br  0.75578182  0.00495535  0.90625981    -0.02700
C2569       C  0.91434525  0.25112194  0.07281888    -0.09400
C2570       C  0.93011060  0.27607063  0.09324824     0.06800
C2571       C  0.96194353  0.29623983  0.08635845    -0.03100
C2572       C  0.97745002  0.28772945  0.06455186    -0.07600
C2573       C  0.96081906  0.26376062  0.04377654     0.06000
C2574       C  0.92872537  0.24844676  0.04562507    -0.02600
Br2575     Br  0.90415478  0.23226395  0.00816391    -0.02300
H2576       H  0.89003380  0.23541116  0.07544214     0.09900
H2577       H  0.50211306  0.30166093  0.06152857     0.07900
Br2578     Br  0.48436981  0.33820512  0.09876433    -0.02700
C2579       C  0.82743829  0.27749914  0.03830851    -0.09400
C2580       C  0.79919230  0.27512321  0.04569933     0.06800
C2581       C  0.79561890  0.28411221  0.07670513    -0.03100
C2582       C  0.81947890  0.29297035  0.09945516    -0.07600
C2583       C  0.84859241  0.29752545  0.09012430     0.06000
C2584       C  0.85281150  0.29326132  0.05752624    -0.02600
Br2585     Br  0.89264149  0.30634476  0.03836657    -0.02300
H2586       H  0.83013680  0.26805767  0.01662637     0.09900
H2587       H  0.81511427  0.29595712  0.12415089     0.07900
Br2588     Br  0.75936870  0.28500267  0.08902729    -0.02700
C2589       C  0.81614774  0.47964575  0.32572916    -0.09400
C2590       C  0.84425055  0.47984923  0.32436937     0.06800
C2591       C  0.87143502  0.50844321  0.32111236    -0.03100
C2592       C  0.86969610  0.03522545  0.31641830    -0.07600
C2593       C  0.84146614  0.03500637  0.31889593     0.06000
C2594       C  0.81493647  0.00667402  0.32624810    -0.02600
Br2595     Br  0.77822320  0.00279389  0.34488132    -0.02300
H2596       H  0.79502156  0.45825070  0.32929196     0.09900
H2597       H  0.89089475  0.05663906  0.31317465     0.07900
Br2598     Br  0.91146126  0.51311823  0.32756764    -0.02700
C2599       C  0.85384545  0.32848393  0.37067094    -0.09400
C2600       C  0.83252824  0.30393687  0.35253691     0.06800
C2601       C  0.81783115  0.30969449  0.32683406    -0.03100
C2602       C  0.82257427  0.33902881  0.32139944    -0.07600
C2603       C  0.84262568  0.36346727  0.34044146     0.06000
C2604       C  0.85908334  0.35811735  0.36464925    -0.02600
Br2605     Br  0.88963523  0.39074863  0.38908308    -0.02300
H2606       H  0.86661596  0.32462859  0.38935436     0.09900
H2607       H  0.80917268  0.34235753  0.30327074     0.07900
Br2608     Br  0.79200802  0.27861698  0.29745490    -0.02700
C2609       C  0.83059129  0.46967113  0.39600599    -0.09400
C2610       C  0.81421594  0.44079483  0.38168298     0.06800
C2611       C  0.78252457  0.42335574  0.38858118    -0.03100
C2612       C  0.76924160  0.43258747  0.41215409    -0.07600
C2613       C  0.78417312  0.46249061  0.42368910     0.06000
C2614       C  0.81530478  0.48155938  0.41435282    -0.02600
Br2615     Br  0.83653388  0.02475579  0.42060293    -0.02300
H2616       H  0.85468026  0.48428658  0.39007442     0.09900
H2617       H  0.74550959  0.41745943  0.41861815     0.07900
Br2618     Br  0.75453986  0.39191118  0.36089301    -0.02700
C2619       C  0.78515501  0.35004651  0.37175033    -0.09400
C2620       C  0.80785266  0.37768440  0.38423206     0.06800
C2621       C  0.81291839  0.37882066  0.41761263    -0.03100
C2622       C  0.79560525  0.35252263  0.43712646    -0.07600
C2623       C  0.77563665  0.32398096  0.42359793     0.06000
C2624       C  0.77160296  0.32321087  0.38996253    -0.02600
Br2625     Br  0.75013388  0.28616192  0.36611385    -0.02300
H2626       H  0.77997304  0.34882414  0.34646631     0.09900
H2627       H  0.79828229  0.35438181  0.46284912     0.07900
Br2628     Br  0.84368564  0.41486986  0.43763088    -0.02700
C2629       C  0.90301041  0.40968992  0.29158044    -0.09400
C2630       C  0.87250695  0.40157806  0.28583844     0.06800
C2631       C  0.85746359  0.38259023  0.25998266    -0.03100
C2632       C  0.87218527  0.36972332  0.24276509    -0.07600
C2633       C  0.90406754  0.38045571  0.24588664     0.06000
C2634       C  0.91964963  0.40269593  0.26984971    -0.02600
Br2635     Br  0.96337967  0.42864637  0.27300227    -0.02300
H2636       H  0.91479147  0.42419786  0.31157069     0.09900
H2637       H  0.85828016  0.35142967  0.22687060     0.07900
Br2638     Br  0.81728966  0.37406736  0.24695396    -0.02700
C2639       C  0.66601171  0.47763904  0.32347733    -0.09400
C2640       C  0.63952704  0.47677422  0.33574818     0.06800
C2641       C  0.64223607  0.00315449  0.34988477    -0.03100
C2642       C  0.67126787  0.02876972  0.35357856    -0.07600
C2643       C  0.69782266  0.02951800  0.34155823     0.06000
C2644       C  0.69456930  0.00414368  0.32461953    -0.02600
Br2645     Br  0.72620411  0.00598582  0.29726928    -0.02300
H2646       H  0.66410998  0.45796046  0.31142834     0.09900
H2647       H  0.67299584  0.04854680  0.36521699     0.07900
Br2648     Br  0.60762049  0.00654519  0.36348633    -0.02700
C2649       C  0.96902019  0.33682066  0.32514396    -0.09400
C2650       C  0.96737023  0.30845262  0.32067332     0.06800
C2651       C  0.99523324  0.30761053  0.31935340    -0.03100
C2652       C  0.52319154  0.33418187  0.32349229    -0.07600
C2653       C  0.52485063  0.36247193  0.32679490     0.06000
C2654       C  0.99733464  0.36355682  0.32820139    -0.02600
Br2655     Br  0.99719740  0.40056978  0.33685100    -0.02300
H2656       H  0.94819629  0.33825414  0.32707912     0.09900
H2657       H  0.54402589  0.33284063  0.32288110     0.07900
Br2658     Br  0.99811076  0.27194316  0.31048421    -0.02700
C2659       C  0.53842748  0.36243638  0.39870592    -0.09400
C2660       C  0.56503074  0.37073646  0.38005156     0.06800
C2661       C  0.57715978  0.35070592  0.38087551    -0.03100
C2662       C  0.56520426  0.32571517  0.40233380    -0.07600
C2663       C  0.53747234  0.31609348  0.41943582     0.06000
C2664       C  0.52348595  0.33454181  0.41617008    -0.02600
Br2665     Br  0.98179390  0.32075181  0.42936667    -0.02300
H2666       H  0.52723260  0.37605269  0.39666206     0.09900
H2667       H  0.57625340  0.31192839  0.40314063     0.07900
Br2668     Br  0.60389100  0.35050373  0.34805934    -0.02700
C2669       C  0.64749479  0.42071771  0.37547087    -0.09400
C2670       C  0.62589204  0.42975510  0.38190047     0.06800
C2671       C  0.63209871  0.45021638  0.40682183    -0.03100
C2672       C  0.66104941  0.46402054  0.42135527    -0.07600
C2673       C  0.68106474  0.45189323  0.41823744     0.06000
C2674       C  0.67246664  0.42839979  0.39547353    -0.02600
Br2675     Br  0.69070357  0.40312245  0.39072458    -0.02300
H2676       H  0.64540590  0.40800428  0.35432559     0.09900
H2677       H  0.66710068  0.48367131  0.43584215     0.07900
Br2678     Br  0.60111004  0.45813003  0.42318572    -0.02700
C2679       C  0.53664983  0.41801504  0.25346307    -0.09400
C2680       C  0.54892615  0.40188500  0.26964891     0.06800
C2681       C  0.53977288  0.37241941  0.25841188    -0.03100
C2682       C  0.01098104  0.35579045  0.24381949    -0.07600
C2683       C  0.99584811  0.37120871  0.23239717     0.06000
C2684       C  0.51214927  0.40321935  0.23259769    -0.02600
Br2685     Br  0.50140607  0.42740146  0.20512591    -0.02300
H2686       H  0.54448717  0.44120036  0.25681075     0.09900
H2687       H  0.00072695  0.33136880  0.24232198     0.07900
Br2688     Br  0.06677512  0.35568480  0.26113344    -0.02700
C2689       C  0.98252234  0.20876297  0.07775976    -0.09400
C2690       C  0.96261490  0.20789655  0.05351545     0.06800
C2691       C  0.93107330  0.18754385  0.05806241    -0.03100
C2692       C  0.92057273  0.17253198  0.08755969    -0.07600
C2693       C  0.93988603  0.16476771  0.10509417     0.06000
C2694       C  0.97212935  0.18493758  0.10095287    -0.02600
Br2695     Br  0.00388051  0.17990596  0.12081666    -0.02300
H2696       H  0.50682474  0.22505681  0.07572993     0.09900
H2697       H  0.89590198  0.15941533  0.09132286     0.07900
Br2698     Br  0.90377704  0.16916019  0.02306463    -0.02700
C2699       C  0.80100056  0.02465269  0.08020770    -0.09400
C2700       C  0.80120622  0.03236660  0.04774438     0.06800
C2701       C  0.82878283  0.05593365  0.03449458    -0.03100
C2702       C  0.85603524  0.06758414  0.05190704    -0.07600
C2703       C  0.85590529  0.06064978  0.08493129     0.06000
C2704       C  0.82708224  0.04021833  0.09931963    -0.02600
Br2705     Br  0.82021859  0.03509515  0.14487668    -0.02300
H2706       H  0.78051345  0.00649641  0.09096973     0.09900
H2707       H  0.87718634  0.08357146  0.03970585     0.07900
Br2708     Br  0.82978366  0.07510786  0.99404725    -0.02700
C2709       C  0.90219961  0.46889392  0.26717882    -0.09400
C2710       C  0.87110029  0.45862859  0.27425662     0.06800
C2711       C  0.85490330  0.46759845  0.25301137    -0.03100
C2712       C  0.87113157  0.99067686  0.22977887    -0.07600
C2713       C  0.90285190  0.00223220  0.22440203     0.06000
C2714       C  0.91698675  0.48787289  0.24079882    -0.02600
Br2715     Br  0.95728009  0.49481650  0.22950690    -0.02300
H2716       H  0.91593172  0.46375521  0.28311466     0.09900
H2717       H  0.85910766  0.00038363  0.21698224     0.07900
Br2718     Br  0.81097716  0.44908598  0.25454466    -0.02700
C2719       C  0.76437076  0.20665732  0.05718323    -0.09400
C2720       C  0.74242082  0.21543328  0.04963783     0.06800
C2721       C  0.71515841  0.20249808  0.06832437    -0.03100
C2722       C  0.70765751  0.17717594  0.08821653    -0.07600
C2723       C  0.72958304  0.16840809  0.09608066     0.06000
C2724       C  0.75924550  0.18553869  0.08195404    -0.02600
Br2725     Br  0.79434020  0.18294137  0.09652713    -0.02300
H2726       H  0.78590727  0.21650553  0.04405666     0.09900
H2727       H  0.68451886  0.16472101  0.09788884     0.07900
Br2728     Br  0.68923384  0.22036664  0.07150880    -0.02700
C2729       C  0.74335187  0.05930376  0.04210930    -0.09400
C2730       C  0.74187503  0.03289513  0.05505719     0.06800
C2731       C  0.73143057  0.02460184  0.08712214    -0.03100
C2732       C  0.72492075  0.04381788  0.10566805    -0.07600
C2733       C  0.72232252  0.06799393  0.09140009     0.06000
C2734       C  0.73057881  0.07445526  0.05833428    -0.02600
Br2735     Br  0.72072220  0.09984819  0.03157012    -0.02300
H2736       H  0.75064550  0.06570082  0.01738365     0.09900
H2737       H  0.72051279  0.03874520  0.13102177     0.07900
Br2738     Br  0.72193363  0.48603593  0.10602396    -0.02700
C2739       C  0.59921101  0.01073339  0.25833298    -0.09400
C2740       C  0.62725872  0.02111686  0.24156395     0.06800
C2741       C  0.64229009  0.50375253  0.24489690    -0.03100
C2742       C  0.62803346  0.47590344  0.26219353    -0.07600
C2743       C  0.60132853  0.46704017  0.28074130     0.06000
C2744       C  0.58779576  0.48580010  0.27962873    -0.02600
Br2745     Br  0.55297809  0.47824300  0.30594592    -0.02300
H2746       H  0.58699946  0.02339752  0.25660387     0.09900
H2747       H  0.63946812  0.46250994  0.26364003     0.07900
Br2748     Br  0.68425235  0.51900012  0.23186103    -0.02700
C2749       C  0.63903183  0.14511174  0.34066610    -0.09400
C2750       C  0.64125699  0.17375982  0.33629307     0.06800
C2751       C  0.67021329  0.19946137  0.33028501    -0.03100
C2752       C  0.69615709  0.19605555  0.32820793    -0.07600
C2753       C  0.69379374  0.16713071  0.33094822     0.06000
C2754       C  0.66466123  0.14138925  0.33728772    -0.02600
Br2755     Br  0.65756994  0.10049142  0.34204531    -0.02300
H2756       H  0.61678687  0.12526577  0.34547297     0.09900
H2757       H  0.71824630  0.21614789  0.32346086     0.07900
Br2758     Br  0.67527850  0.23905482  0.32169661    -0.02700
C2759       C  0.00167554  0.20743315  0.33814396    -0.09400
C2760       C  0.97495408  0.18275085  0.32616098     0.06800
C2761       C  0.97839888  0.16528321  0.30265551    -0.03100
C2762       C  0.00735742  0.16870198  0.29734329    -0.07600
C2763       C  0.53203328  0.18553805  0.31823373     0.06000
C2764       C  0.53032934  0.20973541  0.33276134    -0.02600
Br2765     Br  0.56531901  0.24821502  0.34001505    -0.02300
H2766       H  0.00036709  0.22461006  0.35213252     0.09900
H2767       H  0.01010002  0.16016510  0.27521923     0.07900
Br2768     Br  0.94575598  0.13978052  0.27431179    -0.02700
C2769       C  0.52283781  0.17191965  0.38860423    -0.09400
C2770       C  0.55535913  0.18695521  0.38720733     0.06800
C2771       C  0.57001141  0.20672159  0.41278272    -0.03100
C2772       C  0.55667800  0.22316092  0.42490964    -0.07600
C2773       C  0.52524566  0.21278969  0.42077340     0.06000
C2774       C  0.50755849  0.18461675  0.40545064    -0.02600
Br2775     Br  0.96342650  0.16412167  0.40381680    -0.02300
H2776       H  0.50936323  0.15277982  0.37353711     0.09900
H2777       H  0.56951354  0.24124948  0.44159397     0.07900
Br2778     Br  0.58461450  0.19203303  0.44755918    -0.02700
C2779       C  0.65973854  0.24580262  0.41821669    -0.09400
C2780       C  0.67482427  0.23073910  0.43083306     0.06800
C2781       C  0.66344731  0.20007762  0.42164877    -0.03100
C2782       C  0.63665982  0.18526434  0.40315500    -0.07600
C2783       C  0.62457090  0.20172562  0.38690833     0.06000
C2784       C  0.63764690  0.23294469  0.39425837    -0.02600
Br2785     Br  0.63015170  0.26105715  0.37054428    -0.02300
H2786       H  0.66734272  0.26914279  0.42456292     0.09900
H2787       H  0.62736509  0.16132097  0.39844040     0.07900
Br2788     Br  0.68603072  0.17870902  0.42721772    -0.02700
C2789       C  0.98807264  0.09820015  0.27415107    -0.09400
C2790       C  0.99128738  0.10409569  0.24086167     0.06800
C2791       C  0.52079927  0.12521062  0.22844704    -0.03100
C2792       C  0.54513636  0.14211323  0.24945589    -0.07600
C2793       C  0.54100763  0.13736013  0.28287085     0.06000
C2794       C  0.51263350  0.11353270  0.29484639    -0.02600
Br2795     Br  0.00481947  0.10303446  0.33964803    -0.02300
H2796       H  0.96596785  0.08186414  0.28445825     0.09900
H2797       H  0.56696922  0.15971272  0.23978256     0.07900
Br2798     Br  0.52966343  0.13128161  0.18331934    -0.02700
C2799       C  0.63192396  0.16401626  0.26667667    -0.09400
C2800       C  0.60352024  0.14577733  0.28267695     0.06800
C2801       C  0.58921508  0.11396441  0.27868196    -0.03100
C2802       C  0.60137256  0.10185494  0.25700163    -0.07600
C2803       C  0.63122728  0.11944637  0.24388517     0.06000
C2804       C  0.64724509  0.15088448  0.25082405    -0.02600
Br2805     Br  0.69116180  0.17566787  0.24629000    -0.02300
H2806       H  0.64411660  0.18835199  0.27026702     0.09900
H2807       H  0.58866808  0.07750956  0.25329120     0.07900
Br2808     Br  0.55777030  0.08493394  0.30685302    -0.02700
C2809       C  0.61218073  0.67500537  0.33400842     0.02100
C2810       C  0.59283332  0.66006173  0.30778536     0.02100
C2811       C  0.56434545  0.65940583  0.30527279     0.02100
C2812       C  0.55692706  0.67696789  0.32670888     0.02100
C2813       C  0.57240789  0.68469351  0.35749671     0.02100
C2814       C  0.60242606  0.68711316  0.35938457     0.02100
C2815       C  0.64498710  0.60248041  0.22733673    -0.11100
C2816       C  0.63928646  0.57490664  0.24191326    -0.04900
C2817       C  0.64135609  0.55206959  0.22519824    -0.11000
C2818       C  0.65495421  0.55943073  0.19396007     0.09900
C2819       C  0.66761039  0.58975216  0.18178160    -0.02800
C2820       C  0.66060609  0.61058028  0.19719162     0.09700
C2821       C  0.66957456  0.63865264  0.18184262    -0.12800
C2822       C  0.69060949  0.64888197  0.15651906    -0.12800
C2823       C  0.69906734  0.62935137  0.14151422     0.09700
C2824       C  0.68614621  0.59885232  0.15332082    -0.02800
C2825       C  0.65541675  0.53761539  0.17385108    -0.13000
C2826       C  0.67297206  0.54635815  0.14550595    -0.13000
C2827       C  0.69117305  0.57732130  0.13648774     0.09900
C2828       C  0.71330932  0.58767848  0.11079391    -0.11000
C2829       C  0.72861145  0.61895081  0.10296592    -0.04900
C2830       C  0.71982917  0.63925110  0.11501958    -0.11100
H2831       H  0.66176827  0.65378724  0.19013672     0.07200
H2832       H  0.70033101  0.67250904  0.14921584     0.07200
H2833       H  0.64251956  0.51359824  0.18010791     0.07300
H2834       H  0.67189906  0.52847820  0.13084202     0.07300
H2835       H  0.63060248  0.57015705  0.26637083     0.03800
H2836       H  0.74658517  0.62729175  0.08510965     0.03800
C2837       C  0.96407881  0.58523410  0.22015395    -0.11100
C2838       C  0.94785677  0.55393296  0.22694643    -0.04900
C2839       C  0.92219831  0.53341292  0.20953351    -0.11000
C2840       C  0.91399211  0.54456430  0.18206622     0.09900
C2841       C  0.92858914  0.57654641  0.17590379    -0.02800
C2842       C  0.95248163  0.59701383  0.19616177     0.09700
C2843       C  0.96262544  0.62833406  0.19297918    -0.12800
C2844       C  0.95168020  0.63954867  0.16850383    -0.12800
C2845       C  0.93230487  0.62028039  0.14480834     0.09700
C2846       C  0.91884789  0.58813495  0.14982473    -0.02800
C2847       C  0.89206576  0.52474239  0.16041948    -0.13000
C2848       C  0.88341093  0.53603572  0.13408279    -0.13000
C2849       C  0.89524512  0.56752075  0.12928756     0.09900
C2850       C  0.88467803  0.57911588  0.10417094    -0.11000
C2851       C  0.90159631  0.61029674  0.09712514    -0.04900
C2852       C  0.92504860  0.63169906  0.11671863    -0.11100
H2853       H  0.97885279  0.64436959  0.20967131     0.07200
H2854       H  0.95911661  0.66363732  0.16777588     0.07200
H2855       H  0.88186333  0.50029028  0.16341610     0.07300
H2856       H  0.86693145  0.51984125  0.11767155     0.07300
H2857       H  0.95469212  0.54553615  0.24753423     0.03800
H2858       H  0.89547867  0.61825326  0.07580542     0.03800
C2859       C  0.60964537  0.94763894  0.33344571     0.02100
C2860       C  0.59157619  0.94181829  0.30538979     0.02100
C2861       C  0.56571815  0.91218572  0.30117462     0.02100
C2862       C  0.55564984  0.89077471  0.32766456     0.02100
C2863       C  0.57472564  0.89577703  0.35474827     0.02100
C2864       C  0.60228347  0.92429994  0.35711787     0.02100
C2865       C  0.84421265  0.95006481  0.32893526     0.02100
C2866       C  0.85678282  0.93971400  0.30437671     0.02100
C2867       C  0.85670000  0.91167630  0.30897107     0.02100
C2868       C  0.84325064  0.89346592  0.33679017     0.02100
C2869       C  0.82824187  0.90206027  0.36006399     0.02100
C2870       C  0.82941845  0.93095492  0.35680627     0.02100
C2871       C  0.91982879  0.86666635  0.22663792    -0.11100
C2872       C  0.94444600  0.86500216  0.24099529    -0.04900
C2873       C  0.96258039  0.85584360  0.22417699    -0.11000
C2874       C  0.95007811  0.83793361  0.19713229     0.09900
C2875       C  0.92342916  0.83620743  0.18309129    -0.02800
C2876       C  0.91049163  0.85348227  0.19558535     0.09700
C2877       C  0.88941366  0.85714528  0.17611376    -0.12800
C2878       C  0.87698653  0.83973179  0.14864190    -0.12800
C2879       C  0.88589504  0.81868035  0.13917402     0.09700
C2880       C  0.91068606  0.81831209  0.15558821    -0.02800
C2881       C  0.96284922  0.82115928  0.18430367    -0.13000
C2882       C  0.94875208  0.80159708  0.15925458    -0.13000
C2883       C  0.92380957  0.80109742  0.14356717     0.09900
C2884       C  0.91169465  0.78388645  0.11591948    -0.11000
C2885       C  0.88254923  0.77807796  0.10658069    -0.04900
C2886       C  0.87183112  0.79823994  0.11354403    -0.11100
H2887       H  0.88255822  0.87376424  0.18162219     0.02700
H2888       H  0.86025264  0.84276130  0.13510158     0.07200
H2889       H  0.98313864  0.82195273  0.19395256     0.07300
H2890       H  0.95828875  0.78765997  0.15132747     0.07300
H2891       H  0.95124913  0.87252141  0.26514136     0.03800
H2892       H  0.87014019  0.76118431  0.08886071     0.03800
C2893       C  0.77745071  0.49712875  0.00141374     0.02100
C2894       C  0.77395295  0.51346352  0.02703682     0.02100
C2895       C  0.74516000  0.51213892  0.03190999     0.02100
C2896       C  0.72049359  0.49515861  0.01045180     0.02100
C2897       C  0.72418104  0.97926132  0.98441883     0.02100
C2898       C  0.75294498  0.98049253  0.97994587     0.02100
C2899       C  0.78313964  0.78276218  0.98978484     0.02100
C2900       C  0.77562165  0.76502454  0.01907996     0.02100
C2901       C  0.74806900  0.73674280  0.02140900     0.02100
C2902       C  0.72712065  0.72760291  0.99545331     0.02100
C2903       C  0.73340250  0.74662279  0.96728989     0.02100
C2904       C  0.76293259  0.77370295  0.96252555     0.02100
C2905       C  0.48855148  0.71702297  0.99896021     0.02100
C2906       C  0.97545103  0.72659354  0.02310869     0.02100
C2907       C  0.97664198  0.75505503  0.01961278     0.02100
C2908       C  0.49269635  0.77492638  0.99351156     0.02100
C2909       C  0.50437873  0.76484833  0.96825635     0.02100
C2910       C  0.50261416  0.73576077  0.97096705     0.02100
C2911       C  0.66367991  0.55389554  0.66308383     0.02100
C2912       C  0.67122471  0.57198114  0.63371839     0.02100
C2913       C  0.67493900  0.60199252  0.63634510     0.02100
C2914       C  0.66663535  0.61109660  0.66513900     0.02100
C2915       C  0.65588504  0.59147032  0.69228924     0.02100
C2916       C  0.65729848  0.56406126  0.69263144     0.02100
C2917       C  0.62624807  0.70941685  0.88564051    -0.11100
C2918       C  0.60565054  0.71837163  0.89693725    -0.04900
C2919       C  0.57646459  0.70811161  0.88385619    -0.11000
C2920       C  0.56933441  0.69206121  0.85471906     0.09900
C2921       C  0.59004560  0.68312472  0.84202547    -0.02800
C2922       C  0.61824487  0.69130902  0.85774786     0.09700
C2923       C  0.63726243  0.68079517  0.84517351    -0.12800
C2924       C  0.62711856  0.65953051  0.82096319    -0.12800
C2925       C  0.60115702  0.65345180  0.80302256     0.09700
C2926       C  0.58211494  0.66521099  0.81387092    -0.02800
C2927       C  0.54251179  0.68482343  0.83760341    -0.13000
C2928       C  0.53725647  0.67138329  0.80791179    -0.13000
C2929       C  0.55493516  0.65883638  0.79700727     0.09900
C2930       C  0.54618627  0.63998319  0.76992010    -0.11000
C2931       C  0.56611885  0.62987453  0.75932063    -0.04900
C2932       C  0.59351304  0.63608273  0.77465422    -0.11100
H2933       H  0.65977397  0.68781085  0.85468602     0.07200
H2934       H  0.64070652  0.64889866  0.81563412     0.07200
H2935       H  0.52509198  0.68946577  0.84620663     0.07300
H2936       H  0.51799163  0.66948835  0.79444262     0.07300
H2937       H  0.61129279  0.73169046  0.91847672     0.03800
H2938       H  0.55990143  0.61638086  0.73814076     0.03800
C2939       C  0.57893177  0.86516414  0.88286126    -0.11100
C2940       C  0.60248987  0.88537331  0.90273610    -0.04900
C2941       C  0.62554857  0.91403087  0.89211841    -0.11000
C2942       C  0.62298180  0.92416015  0.86083271     0.09900
C2943       C  0.59647543  0.90591796  0.84210003    -0.02800
C2944       C  0.57516692  0.87572174  0.85232082     0.09700
C2945       C  0.55114824  0.85726692  0.83157112    -0.12800
C2946       C  0.54555091  0.86949280  0.80366799    -0.12800
C2947       C  0.56374079  0.90050384  0.79536527     0.09700
C2948       C  0.59120845  0.91805505  0.81321667    -0.02800
C2949       C  0.64582290  0.95201667  0.84775083    -0.13000
C2950       C  0.64044537  0.96431502  0.82008117    -0.13000
C2951       C  0.61297643  0.94810873  0.80300890     0.09900
C2952       C  0.60636578  0.96121431  0.77632660    -0.11000
C2953       C  0.57845137  0.94423880  0.76026056    -0.04900
C2954       C  0.55610568  0.91447734  0.76943895    -0.11100
H2955       H  0.53603653  0.83335028  0.83701800     0.07200
H2956       H  0.52636946  0.85461430  0.78895956     0.07200
H2957       H  0.66756639  0.96529747  0.85959426     0.07300
H2958       H  0.65788250  0.98700298  0.81275022     0.07300
H2959       H  0.60316228  0.87820844  0.92723585     0.03800
H2960       H  0.57355685  0.95567936  0.74092674     0.03800
C2961       C  0.94061192  0.61107747  0.66073791     0.02100
C2962       C  0.93719450  0.59417140  0.68983978     0.02100
C2963       C  0.90883099  0.56748960  0.69746353     0.02100
C2964       C  0.88449269  0.55683310  0.67469815     0.02100
C2965       C  0.88743306  0.57355571  0.64580016     0.02100
C2966       C  0.91531711  0.60118237  0.63940784     0.02100
C2967       C  0.94933889  0.84102570  0.66904147     0.02100
C2968       C  0.94403936  0.85867915  0.69190331     0.02100
C2969       C  0.91564939  0.85855593  0.69141839     0.02100
C2970       C  0.89467245  0.84399279  0.66575595     0.02100
C2971       C  0.90026480  0.82704334  0.64204980     0.02100
C2972       C  0.92811883  0.82564629  0.64360306     0.02100
C2973       C  0.78426989  0.91716132  0.88483682    -0.11100
C2974       C  0.76783191  0.88530172  0.88821191    -0.04900
C2975       C  0.77701149  0.86700844  0.87243535    -0.11000
C2976       C  0.79920745  0.87997735  0.84753523     0.09900
C2977       C  0.81531046  0.91200133  0.84222383    -0.02800
C2978       C  0.80858008  0.93087746  0.86169640     0.09700
C2979       C  0.82717307  0.96267462  0.85830054    -0.12800
C2980       C  0.85031777  0.97563022  0.83486879    -0.12800
C2981       C  0.85599718  0.95740653  0.81391340     0.09700
C2982       C  0.83938142  0.92517885  0.81870543    -0.02800
C2983       C  0.80597814  0.86157896  0.82823837    -0.13000
C2984       C  0.82828128  0.87425148  0.80412450    -0.13000
C2985       C  0.84650750  0.90600580  0.79995699     0.09900
C2986       C  0.87119621  0.91926916  0.77730391    -0.11000
C2987       C  0.88647527  0.95109771  0.77282873    -0.04900
C2988       C  0.87848228  0.97042000  0.78899443    -0.11100
H2989       H  0.82429218  0.97795111  0.87390425     0.07200
H2990       H  0.86429633  0.00020792  0.83379739     0.07200
H2991       H  0.79333421  0.83702155  0.83107631     0.07300
H2992       H  0.83065429  0.85864339  0.78865352     0.07300
H2993       H  0.75025640  0.87483131  0.90677195     0.03800
H2994       H  0.90420203  0.96089180  0.75460183     0.03800
C2995       C  0.51281583  0.73196603  0.43387684    -0.11100
C2996       C  0.52368457  0.76105909  0.41999531    -0.04900
C2997       C  0.52229680  0.78483087  0.43598226    -0.11000
C2998       C  0.50859904  0.77820015  0.46735127     0.09900
C2999       C  0.49356669  0.74762020  0.47960328    -0.02800
C3000       C  0.49579239  0.72460154  0.46275562     0.09700
C3001       C  0.48080911  0.69474060  0.47522568    -0.12800
C3002       C  0.96134654  0.68683055  0.50151784    -0.12800
C3003       C  0.96174419  0.70922524  0.52110619     0.09700
C3004       C  0.97777858  0.74019627  0.50980737    -0.02800
C3005       C  0.51058580  0.80112057  0.48753895    -0.13000
C3006       C  0.99563944  0.79401357  0.51743305    -0.13000
C3007       C  0.97819117  0.76364817  0.52858106     0.09900
C3008       C  0.96231490  0.75591878  0.55858053    -0.11000
C3009       C  0.94812542  0.72556079  0.56931492    -0.04900
C3010       C  0.94710649  0.70179848  0.55172711    -0.11100
H3011       H  0.48289815  0.67671646  0.46426505     0.07200
H3012       H  0.94634582  0.66284140  0.50627347     0.07200
H3013       H  0.52404835  0.82490583  0.48051626     0.07300
H3014       H  0.99835463  0.81267323  0.53199434     0.07300
H3015       H  0.53478598  0.76545525  0.39670475     0.03800
H3016       H  0.93763342  0.72034256  0.59275029     0.03800
C3017       C  0.70499623  0.74959025  0.44808707    -0.11100
C3018       C  0.72507772  0.77865973  0.43531083    -0.04900
C3019       C  0.75605539  0.79585585  0.44401518    -0.11000
C3020       C  0.76637200  0.78547922  0.47078297     0.09900
C3021       C  0.74500511  0.75853280  0.48783552    -0.02800
C3022       C  0.71462002  0.74018235  0.47590317     0.09700
C3023       C  0.69471337  0.71305747  0.49226779    -0.12800
C3024       C  0.70476620  0.70279896  0.51806163    -0.12800
C3025       C  0.73335447  0.72158273  0.53238353     0.09700
C3026       C  0.75410543  0.74958447  0.51669909    -0.02800
C3027       C  0.79723037  0.80035629  0.48069072    -0.13000
C3028       C  0.80602119  0.79163680  0.50908325    -0.13000
C3029       C  0.78433896  0.76788987  0.52894561     0.09900
C3030       C  0.79186724  0.76092858  0.55999013    -0.11000
C3031       C  0.76939796  0.73455189  0.57611144    -0.04900
C3032       C  0.74199974  0.71328824  0.56166912    -0.11100
H3033       H  0.67123379  0.69888704  0.48472032     0.07200
H3034       H  0.68930016  0.67991518  0.52635127     0.07200
H3035       H  0.81499477  0.81886589  0.46661911     0.07300
H3036       H  0.83002386  0.80394922  0.51553292     0.07300
H3037       H  0.71698896  0.78767545  0.41638428     0.03800
H3038       H  0.77391950  0.72939612  0.60014751     0.03800
C3039       C  0.71057202  0.96424358  0.43751664    -0.11100
C3040       C  0.73673210  0.96627840  0.42261836    -0.04900
C3041       C  0.76376028  0.97303521  0.43927202    -0.11000
C3042       C  0.76758988  0.98550904  0.47042040     0.09900
C3043       C  0.74310730  0.98799892  0.48476512    -0.02800
C3044       C  0.71394302  0.97509048  0.46948778     0.09700
C3045       C  0.68926714  0.97381689  0.48682879    -0.12800
C3046       C  0.69421663  0.49128356  0.51370714    -0.12800
C3047       C  0.72283172  0.50540357  0.52867250     0.09700
C3048       C  0.74727345  0.50236376  0.51510504    -0.02800
C3049       C  0.79505876  0.99615262  0.48744494    -0.13000
C3050       C  0.79986045  0.51205435  0.51590455    -0.13000
C3051       C  0.77607693  0.51469827  0.53101829     0.09900
C3052       C  0.77990286  0.52922942  0.56129153    -0.11000
C3053       C  0.75494509  0.53148278  0.57370548    -0.04900
C3054       C  0.72736144  0.52159571  0.55732821    -0.11100
H3055       H  0.66569945  0.95970110  0.47985265     0.07200
H3056       H  0.67486598  0.49260352  0.52315632     0.07200
H3057       H  0.81368102  0.99334836  0.47834910     0.07300
H3058       H  0.82281280  0.52266380  0.52536356     0.07300
H3059       H  0.73573991  0.96090753  0.39755908     0.03800
H3060       H  0.75691223  0.54161399  0.59679857     0.03800
O3061       O  0.51533435  0.96368094  0.02827883    -0.88500
C3062       C  0.56108704  0.53053764  0.95991453     0.87500
Mg3063     Mg  0.96891283  0.92855688  0.02245688     1.58100
O3064       O  0.53864810  0.55465078  0.02892880    -0.88300
O3065       O  0.54451032  0.49978837  0.06101124    -0.75600
C3066       C  0.89242054  0.49782727  0.98256020     0.92500
O3067       O  0.50742293  0.95832832  0.95107800    -0.75400
O3068       O  0.89231437  0.97286110  0.97954978    -0.82900
Mg3069     Mg  0.54550013  0.97062476  0.98822200     1.58000
C3070       C  0.49412817  0.60608261  0.01284974     0.92500
O3071       O  0.58532387  0.98001704  0.02126359    -0.81200
H3072       H  0.53927176  0.56076164  0.07618273    -0.06500
C3073       C  0.98062572  0.53234772  0.95168616     0.87400
O3074       O  0.95095380  0.95368147  0.05359051    -0.75700
O3075       O  0.55665305  0.51795433  0.98653693    -0.88500
O3076       O  0.52021614  0.60770512  0.00901782    -0.81300
C3077       C  0.61026168  0.61384052  0.99831444     0.92600
C3078       C  0.61065050  0.50437797  0.02508844     0.92400
Mg3079     Mg  0.95899016  0.53314584  0.01881849     1.58000
O3080       O  0.91711389  0.52270475  0.98722146    -0.81200
O3081       O  0.99769318  0.54668934  0.05572415    -0.75400
O3082       O  0.60974041  0.58902606  0.00608315    -0.81300
O3083       O  0.53415343  0.92072010  0.98926307    -0.83000
O3084       O  0.89748174  0.91882391  0.00462087    -0.81300
C3085       C  0.52604098  0.55458623  0.05440429     0.86900
O3086       O  0.94890882  0.98697018  0.02128333    -0.88400
O3087       O  0.98961491  0.54078485  0.97914329    -0.88600
O3088       O  0.96036131  0.00499870  0.94619040    -0.75600
Mg3089     Mg  0.57458621  0.54273660  0.02995658     1.58000
O3090       O  0.58570767  0.61438357  0.99166801    -0.83000
H3091       H  0.51430564  0.95645934  0.07563436    -0.06700
O3092       O  0.96744199  0.95147805  0.97892478    -0.88300
H3093       H  0.96556953  0.94498941  0.93166856    -0.06500
H3094       H  0.93535137  0.98208730  0.06713591    -0.06700
C3095       C  0.97927596  0.95100723  0.95311633     0.86800
C3096       C  0.52430958  0.97238315  0.05567391     0.87400
C3097       C  0.94444009  0.97458796  0.04799927     0.87500
H3098       H  0.99059499  0.54844909  0.93186443    -0.06700
O3099       O  0.55447006  0.55141851  0.95447404    -0.75700
Mg3100     Mg  0.93108686  0.96246172  0.97810138     1.58000
H3101       H  0.57025569  0.52322709  0.94068083    -0.06700
C3102       C  0.00799898  0.89669321  0.99148708     0.92500
O3103       O  0.92043550  0.89151058  0.01392914    -0.82900
C3104       C  0.89645428  0.89341310  0.00876255     0.92500
O3105       O  0.61207341  0.53005812  0.02815985    -0.82900
Mg3106     Mg  0.53632386  0.57680062  0.98502920     1.58200
O3107       O  0.98396449  0.89794235  0.99854654    -0.81300
O3108       O  0.96928568  0.58097219  0.01517472    -0.83000
O3109       O  0.84907091  0.63064902  0.35367486    -0.88500
C3110       C  0.88283089  0.69785103  0.28309401     0.87500
Mg3111     Mg  0.80200329  0.59436402  0.35140064     1.58100
O3112       O  0.86924826  0.71915581  0.35875699    -0.88300
O3113       O  0.88165165  0.66727184  0.38386701    -0.75600
C3114       C  0.72236385  0.66534448  0.33014767     0.92500
O3115       O  0.83125541  0.62228319  0.27815513    -0.75400
O3116       O  0.72167685  0.64055900  0.32355323    -0.82900
Mg3117     Mg  0.87435636  0.63846834  0.30938359     1.58000
C3118       C  0.82930618  0.77352056  0.35700682     0.92500
O3119       O  0.92072363  0.65310327  0.33296406    -0.81200
H3120       H  0.87787659  0.72567070  0.40561860    -0.06500
C3121       C  0.80564574  0.70015828  0.29145175     0.87400
O3122       O  0.78652325  0.61835120  0.38763052    -0.75700
O3123       O  0.88205870  0.68486706  0.30876336    -0.88500
O3124       O  0.85344613  0.77143758  0.35575679    -0.81300
C3125       C  0.93670858  0.78028769  0.32143065     0.92600
C3126       C  0.94476300  0.67921864  0.33369044     0.92400
Mg3127     Mg  0.79161772  0.70004584  0.36200740     1.58000
O3128       O  0.74712696  0.68903062  0.33766504    -0.81200
O3129       O  0.83389695  0.71282569  0.39336833    -0.75400
O3130       O  0.93510860  0.75447514  0.32277162    -0.81300
O3131       O  0.86608645  0.58961126  0.31350296    -0.83000
O3132       O  0.72796146  0.58333600  0.34202036    -0.81300
C3133       C  0.86131776  0.71969490  0.38662025     0.86900
O3134       O  0.78099440  0.65286620  0.36082366    -0.88400
O3135       O  0.81697254  0.70804634  0.31823818    -0.88600
O3136       O  0.78592020  0.67269354  0.28592661    -0.75600
Mg3137     Mg  0.90531517  0.71012775  0.35079166     1.58000
O3138       O  0.91249421  0.78227758  0.32266712    -0.83000
H3139       H  0.85462484  0.62363060  0.39991694    -0.06700
O3140       O  0.79605446  0.61831625  0.31156685    -0.88300
H3141       H  0.78713427  0.60821252  0.26528445    -0.06500
H3142       H  0.77223758  0.64557782  0.40788770    -0.06700
C3143       C  0.80383867  0.61581747  0.28427383     0.86800
C3144       C  0.86142807  0.63958469  0.37988063     0.87400
C3145       C  0.77942609  0.63927645  0.38625629     0.87500
H3146       H  0.81341071  0.71684371  0.27204263    -0.06700
O3147       O  0.87674655  0.71952676  0.28184558    -0.75700
Mg3148     Mg  0.75982334  0.62932310  0.31711451     1.58000
H3149       H  0.88866788  0.69056513  0.26126313    -0.06700
C3150       C  0.84102040  0.56458230  0.31759410     0.92500
O3151       O  0.75243517  0.55676102  0.34594043    -0.82900
C3152       C  0.72774495  0.55801937  0.34360521     0.92500
O3153       O  0.94359158  0.70280197  0.34032462    -0.82900
Mg3154     Mg  0.86353611  0.74390189  0.32015638     1.58200
O3155       O  0.81568293  0.56451010  0.32134186    -0.81300
O3156       O  0.80285528  0.74986990  0.35929781    -0.83000
O3157       O  0.65086567  0.86920120  0.70702370    -0.88500
C3158       C  0.60931064  0.80888654  0.63542067     0.87500
Mg3159     Mg  0.69756479  0.90467198  0.70445617     1.58100
O3160       O  0.62620626  0.77906440  0.70439817    -0.88300
O3161       O  0.61900897  0.83150414  0.73828675    -0.75600
C3162       C  0.77566893  0.83726391  0.66538299     0.92500
O3163       O  0.66431564  0.87984032  0.63062464    -0.75400
O3164       O  0.77608930  0.86254999  0.66298869    -0.82900
Mg3165     Mg  0.62371441  0.86527875  0.66554033     1.58000
C3166       C  0.66790227  0.72557327  0.68570194     0.92500
O3167       O  0.58188847  0.85423316  0.69630335    -0.81200
H3168       H  0.62161163  0.76789312  0.75108037    -0.06500
C3169       C  0.69001963  0.80659693  0.63086171     0.87400
O3170       O  0.71272875  0.87646882  0.73577483    -0.75700
O3171       O  0.61202759  0.81881077  0.66272569    -0.88500
O3172       O  0.64310240  0.72677002  0.68490566    -0.81300
C3173       C  0.55598415  0.72504389  0.66754355     0.92600
C3174       C  0.55595238  0.83010807  0.69877833     0.92400
Mg3175     Mg  0.70586287  0.79856537  0.69821265     1.58000
O3176       O  0.75067221  0.81229536  0.66997511    -0.81200
O3177       O  0.66435391  0.78229167  0.73275952    -0.75400
O3178       O  0.55766937  0.74932723  0.67771266    -0.81300
O3179       O  0.63525861  0.91395258  0.66742715    -0.83000
O3180       O  0.77164086  0.91795322  0.68828811    -0.81300
C3181       C  0.63649776  0.77586877  0.73016459     0.86900
O3182       O  0.71754558  0.84568487  0.70328181    -0.88400
O3183       O  0.67858715  0.79591043  0.65746110    -0.88600
O3184       O  0.71107076  0.83418193  0.62728690    -0.75600
Mg3185     Mg  0.59083809  0.79144147  0.70496308     1.58000
O3186       O  0.58010223  0.72316540  0.66220988    -0.83000
H3187       H  0.64880917  0.87371248  0.75432508    -0.06700
O3188       O  0.70252105  0.88553579  0.66062635    -0.88300
H3189       H  0.70756013  0.89493325  0.61353944    -0.06500
H3190       H  0.72678320  0.84667553  0.74999793    -0.06700
C3191       C  0.69238466  0.88747236  0.63422997     0.86800
C3192       C  0.63991693  0.85903028  0.73393118     0.87400
C3193       C  0.71954672  0.85584440  0.73038442     0.87500
H3194       H  0.68161996  0.79231335  0.61012625    -0.06700
O3195       O  0.61638939  0.78870160  0.62897914    -0.75700
Mg3196     Mg  0.73845151  0.87422888  0.66118218     1.58000
H3197       H  0.60168823  0.81830979  0.61640682    -0.06700
C3198       C  0.66075352  0.93813421  0.67097678     0.92500
O3199       O  0.74657076  0.94233003  0.70036276    -0.82900
C3200       C  0.77157100  0.94239380  0.69533667     0.92500
O3201       O  0.55348972  0.80401181  0.70238752    -0.82900
Mg3202     Mg  0.63088723  0.76025370  0.65994726     1.58200
O3203       O  0.68470427  0.93741129  0.67968616    -0.81300
O3204       O  0.69368785  0.74950903  0.68979280    -0.83000
C3205       C  0.52819264  0.84715201  0.66366680    -0.09400
C3206       C  0.52848749  0.83254752  0.69243614     0.06800
C3207       C  0.50217780  0.81892408  0.71214009    -0.03100
C3208       C  0.97649735  0.82131692  0.70344822    -0.07600
C3209       C  0.97638996  0.83668972  0.67493755     0.06000
C3210       C  0.50236779  0.84886560  0.65442183    -0.02600
Br3211     Br  0.50451590  0.86762136  0.61342722    -0.02300
H3212       H  0.54807123  0.85667779  0.64777262     0.09900
H3213       H  0.95651427  0.81146188  0.71918245     0.07900
Br3214     Br  0.50071609  0.79805565  0.75146930    -0.02700
C3215       C  0.83071354  0.86258936  0.64927225    -0.09400
C3216       C  0.80542003  0.83752829  0.66413620     0.06800
C3217       C  0.81015269  0.81527493  0.68020162    -0.03100
C3218       C  0.83948977  0.81838571  0.68071812    -0.07600
C3219       C  0.86458195  0.84334390  0.66578430     0.06000
C3220       C  0.86003530  0.86574931  0.64985428    -0.02600
Br3221     Br  0.89201715  0.90039583  0.62672024    -0.02300
H3222       H  0.82771026  0.87998709  0.63696382     0.09900
H3223       H  0.84282941  0.80113822  0.69290981     0.07900
Br3224     Br  0.77854318  0.78106513  0.70382277    -0.02700
C3225       C  0.90737760  0.90110798  0.70690037    -0.09400
C3226       C  0.90780773  0.87476277  0.71642834     0.06800
C3227       C  0.89515718  0.86187804  0.74692866    -0.03100
C3228       C  0.88570456  0.87747026  0.76789660    -0.07600
C3229       C  0.88181298  0.90182382  0.75638573     0.06000
C3230       C  0.89044484  0.91119968  0.72421565    -0.02600
Br3231     Br  0.87258960  0.93082193  0.70023741    -0.02300
H3232       H  0.91701764  0.91159543  0.68401825     0.09900
H3233       H  0.87967547  0.86926765  0.79240057     0.07900
Br3234     Br  0.88606951  0.82146462  0.75913550    -0.02700
C3235       C  0.86537423  0.82567630  0.59719129    -0.09400
C3236       C  0.87556028  0.80975042  0.61720771     0.06800
C3237       C  0.85921754  0.77768937  0.61573037    -0.03100
C3238       C  0.83465740  0.76305893  0.59429702    -0.07600
C3239       C  0.82244032  0.77898077  0.57695031     0.06000
C3240       C  0.83776166  0.81093932  0.58012212    -0.02600
Br3241     Br  0.81986560  0.83551729  0.56756059    -0.02300
H3242       H  0.87806042  0.85004107  0.59628841     0.09900
H3243       H  0.82362137  0.73857298  0.59313679     0.07900
Br3244     Br  0.86641882  0.75225748  0.64499028    -0.02700
C3245       C  0.94383014  0.78655525  0.63245169    -0.09400
C3246       C  0.93515546  0.80725882  0.62012748     0.06800
C3247       C  0.93730426  0.81230545  0.58639750    -0.03100
C3248       C  0.94634371  0.79580006  0.56649682    -0.07600
C3249       C  0.95747480  0.77724208  0.57946664     0.06000
C3250       C  0.95808899  0.77477336  0.61325201    -0.02600
Br3251     Br  0.48013542  0.75761823  0.63506079    -0.02300
H3252       H  0.94169667  0.78122326  0.65784342     0.09900
H3253       H  0.94520635  0.79802672  0.54076467     0.07900
Br3254     Br  0.93227219  0.84379147  0.56593063    -0.02700
C3255       C  0.82843898  0.97217336  0.68548848    -0.09400
C3256       C  0.80114493  0.97192572  0.69454087     0.06800
C3257       C  0.80226723  0.00033166  0.69825271    -0.03100
C3258       C  0.82880463  0.52735660  0.68940327    -0.07600
C3259       C  0.85582550  0.52736636  0.68080829     0.06000
C3260       C  0.85578222  0.99958966  0.67960013    -0.02600
Br3261     Br  0.89265983  0.99867950  0.66879375    -0.02300
H3262       H  0.82845385  0.95097736  0.68240746     0.09900
H3263       H  0.82891873  0.54880263  0.69092431     0.07900
Br3264     Br  0.76990810  0.50487799  0.71759695    -0.02700
C3265       C  0.97090210  0.66518027  0.67684497    -0.09400
C3266       C  0.96872959  0.64227060  0.65663480     0.06800
C3267       C  0.49497400  0.64873141  0.63763100    -0.03100
C3268       C  0.52244193  0.67617782  0.64093850    -0.07600
C3269       C  0.52509008  0.69806785  0.66261576     0.06000
C3270       C  0.49853686  0.69267028  0.68018779    -0.02600
Br3271     Br  0.99860022  0.71999696  0.71168873    -0.02300
H3272       H  0.95131160  0.66083620  0.69168607     0.09900
H3273       H  0.54235056  0.68011198  0.62689510     0.07900
Br3274     Br  0.49776451  0.62193845  0.60792620    -0.02700
C3275       C  0.87146387  0.01488926  0.77027912    -0.09400
C3276       C  0.89091452  0.00235129  0.77507545     0.06800
C3277       C  0.92038396  0.01804079  0.76033433    -0.03100
C3278       C  0.92596227  0.53879980  0.73508473    -0.07600
C3279       C  0.90505949  0.54899969  0.72790106     0.06000
C3280       C  0.88003196  0.53997954  0.74931666    -0.02600
Br3281     Br  0.85937051  0.56319548  0.75323596    -0.02300
H3282       H  0.84926502  0.00506155  0.78207302     0.09900
H3283       H  0.94670065  0.54668931  0.72097770     0.07900
Br3284     Br  0.95409059  0.01279881  0.77432359    -0.02700
C3285       C  0.84348240  0.57754394  0.62103183    -0.09400
C3286       C  0.86070228  0.56252973  0.62293602     0.06800
C3287       C  0.85131718  0.53668350  0.60378464    -0.03100
C3288       C  0.82414239  0.52508328  0.58602237    -0.07600
C3289       C  0.80866653  0.54173917  0.58152473     0.06000
C3290       C  0.81981998  0.56925239  0.59871213    -0.02600
Br3291     Br  0.80607020  0.59833003  0.59138407    -0.02300
H3292       H  0.84876213  0.59634359  0.63647963     0.09900
H3293       H  0.81576463  0.00325413  0.57487162     0.07900
Br3294     Br  0.87584244  0.01782412  0.59794575    -0.02700
C3295       C  0.90503661  0.64098364  0.61577013    -0.09400
C3296       C  0.91743111  0.62171315  0.61231536     0.06800
C3297       C  0.93413517  0.62459267  0.58429771    -0.03100
C3298       C  0.94583191  0.65150205  0.56586732    -0.07600
C3299       C  0.93304092  0.67087850  0.56855142     0.06000
C3300       C  0.90898886  0.66207014  0.59155185    -0.02600
Br3301     Br  0.87964900  0.67626986  0.59031062    -0.02300
H3302       H  0.89161299  0.63920084  0.63681051     0.09900
H3303       H  0.96475112  0.65658910  0.54983511     0.07900
Br3304     Br  0.93545179  0.59035030  0.56697398    -0.02700
C3305       C  0.52596110  0.90820500  0.71849467    -0.09400
C3306       C  0.52562472  0.90057664  0.75139409     0.06800
C3307       C  0.99607741  0.88399356  0.76622264    -0.03100
C3308       C  0.96920655  0.87103410  0.74740693    -0.07600
C3309       C  0.97010709  0.87817305  0.71450098     0.06000
C3310       C  0.99882766  0.89983322  0.70153838    -0.02600
Br3311     Br  0.50169697  0.91976113  0.66117524    -0.02300
H3312       H  0.54745764  0.92176496  0.70568600     0.09900
H3313       H  0.94776462  0.85545442  0.75884939     0.07900
Br3314     Br  0.98989930  0.88147366  0.81184072    -0.02700
C3315       C  0.51861620  0.62699525  0.71767405    -0.09400
C3316       C  0.51707711  0.63007718  0.75103198     0.06800
C3317       C  0.98721395  0.61853957  0.76486054    -0.03100
C3318       C  0.96178248  0.61016409  0.74477138    -0.07600
C3319       C  0.96396979  0.60515756  0.71205429     0.06000
C3320       C  0.99208986  0.60942660  0.70060645    -0.02600
Br3321     Br  0.49333233  0.58159535  0.67091445    -0.02300
H3322       H  0.54023922  0.63415607  0.70548056     0.09900
H3323       H  0.93972426  0.60445245  0.75520710     0.07900
Br3324     Br  0.97802027  0.60722056  0.80942101    -0.02700
C3325       C  0.64081847  0.64260309  0.66538383    -0.09400
C3326       C  0.66818140  0.64149082  0.66737467     0.06800
C3327       C  0.69535460  0.66806318  0.67565443    -0.03100
C3328       C  0.69465547  0.69492250  0.68172703    -0.07600
C3329       C  0.66702796  0.69599456  0.68025130     0.06000
C3330       C  0.63985822  0.66920125  0.67141441    -0.02600
Br3331     Br  0.60025484  0.66617637  0.66638957    -0.02300
H3332       H  0.61969147  0.62222717  0.65961758     0.09900
H3333       H  0.71588145  0.71494021  0.68823121     0.07900
Br3334     Br  0.73336565  0.66815567  0.68173570    -0.02700
C3335       C  0.68969985  0.52272543  0.65823402    -0.09400
C3336       C  0.66261930  0.52390973  0.66371070     0.06800
C3337       C  0.63473656  0.99650232  0.66884772    -0.03100
C3338       C  0.63472791  0.96895884  0.67095970    -0.07600
C3339       C  0.66199094  0.96780959  0.66681636     0.06000
C3340       C  0.68955699  0.99499924  0.65941361    -0.02600
Br3341     Br  0.72681004  0.49547399  0.64745818    -0.02300
H3342       H  0.71094164  0.54350523  0.65257319     0.09900
H3343       H  0.61313749  0.94829254  0.67577967     0.07900
Br3344     Br  0.59569298  0.99500218  0.67006925    -0.02700
C3345       C  0.65549818  0.50569637  0.75334135    -0.09400
C3346       C  0.62547233  0.99371789  0.76585301     0.06800
C3347       C  0.61082556  0.01101537  0.76192340    -0.03100
C3348       C  0.62137286  0.53353765  0.73837967    -0.07600
C3349       C  0.64997309  0.54455155  0.72305413     0.06000
C3350       C  0.66880318  0.53280765  0.73456200    -0.02600
Br3351     Br  0.71219068  0.55295900  0.72596451    -0.02300
H3352       H  0.66824396  0.49379973  0.75732615     0.09900
H3353       H  0.60490292  0.53929261  0.73046884     0.07900
Br3354     Br  0.57321932  0.00148730  0.78400290    -0.02700
C3355       C  0.65858385  0.62519122  0.73767986    -0.09400
C3356       C  0.64102454  0.59954261  0.71878248     0.06800
C3357       C  0.60892925  0.58713233  0.71936223    -0.03100
C3358       C  0.59526639  0.59504430  0.74351374    -0.07600
C3359       C  0.61194525  0.62302708  0.75933004     0.06000
C3360       C  0.64439595  0.63912947  0.75427316    -0.02600
Br3361     Br  0.66997050  0.68203584  0.76143949    -0.02300
H3362       H  0.68337603  0.63707323  0.73528200     0.09900
H3363       H  0.57062215  0.58112414  0.74657436     0.07900
Br3364     Br  0.58257636  0.56078406  0.68642010    -0.02700
C3365       C  0.66086132  0.52747227  0.59656780    -0.09400
C3366       C  0.67587343  0.55923996  0.60176844     0.06800
C3367       C  0.69971474  0.57668644  0.57940038    -0.03100
C3368       C  0.71714684  0.56430745  0.56705170    -0.07600
C3369       C  0.70642504  0.53283988  0.56910487     0.06000
C3370       C  0.67668071  0.51399608  0.58218374    -0.02600
Br3371     Br  0.65835424  0.97042825  0.58495370    -0.02300
H3372       H  0.63863273  0.51276417  0.60745539     0.09900
H3373       H  0.73720558  0.57860684  0.55228925     0.07900
Br3374     Br  0.69178795  0.59849862  0.54596854    -0.02700
C3375       C  0.69208724  0.66974928  0.58384198    -0.09400
C3376       C  0.72389671  0.68273822  0.57813111     0.06800
C3377       C  0.73849397  0.66628706  0.58886220    -0.03100
C3378       C  0.72217429  0.63973546  0.60749165    -0.07600
C3379       C  0.69026928  0.62619321  0.61136943     0.06000
C3380       C  0.67499075  0.64025055  0.59676204    -0.02600
Br3381     Br  0.63114234  0.61917195  0.59222059    -0.02300
H3382       H  0.68014413  0.68192631  0.57718495     0.09900
H3383       H  0.73426071  0.62904294  0.61824700     0.07900
Br3384     Br  0.77991982  0.67731253  0.57743093    -0.02700
C3385       C  0.50871243  0.68588472  0.02588906    -0.09400
C3386       C  0.48823713  0.68753919  0.00386026     0.06800
C3387       C  0.96933763  0.66184011  0.98567769    -0.03100
C3388       C  0.97099912  0.63521848  0.98993532    -0.07600
C3389       C  0.49185065  0.63392143  0.01155402     0.06000
C3390       C  0.51068629  0.65941932  0.02976179    -0.02600
Br3391     Br  0.53895217  0.65889721  0.06035726    -0.02300
H3392       H  0.52464902  0.70591733  0.03870370     0.09900
H3393       H  0.95665769  0.61570528  0.97543574     0.07900
Br3394     Br  0.94202372  0.66227196  0.95375569    -0.02700
C3395       C  0.97269893  0.81100046  0.98596123    -0.09400
C3396       C  0.49755380  0.80664124  0.99295785     0.06800
C3397       C  0.52641731  0.83233333  0.99895755    -0.03100
C3398       C  0.52998290  0.86171590  0.99693215    -0.07600
C3399       C  0.00511280  0.86605563  0.98869746     0.06000
C3400       C  0.97650158  0.84012769  0.98219603    -0.02600
Br3401     Br  0.94224079  0.84253662  0.96512400    -0.02300
H3402       H  0.95034459  0.79151881  0.98175265     0.09900
H3403       H  0.55196818  0.88107851  0.00288050     0.07900
Br3404     Br  0.56069894  0.82815765  0.01280256    -0.02700
C3405       C  0.52651641  0.82423162  0.90065117    -0.09400
C3406       C  0.55804000  0.83447709  0.89728484     0.06800
C3407       C  0.57041967  0.81825952  0.91357060    -0.03100
C3408       C  0.55274299  0.79589898  0.93645443    -0.07600
C3409       C  0.52153415  0.78654779  0.94106355     0.06000
C3410       C  0.50795335  0.79936928  0.92084291    -0.02600
Br3411     Br  0.96428268  0.78291647  0.91775835    -0.02300
H3412       H  0.51631919  0.83598848  0.88821640     0.09900
H3413       H  0.56360552  0.78600348  0.95099245     0.07900
Br3414     Br  0.61177969  0.82645646  0.90632100    -0.02700
C3415       C  0.53612644  0.72460970  0.89268909    -0.09400
C3416       C  0.55411699  0.71223217  0.90425656     0.06800
C3417       C  0.55285663  0.70601815  0.93742501    -0.03100
C3418       C  0.53986269  0.71781313  0.95807467    -0.07600
C3419       C  0.51895381  0.72659665  0.94690831     0.06000
C3420       C  0.51547584  0.72742732  0.91327159    -0.02600
Br3421     Br  0.48136600  0.72833392  0.89389099    -0.02300
H3422       H  0.53716524  0.73131519  0.86779829     0.09900
H3423       H  0.54535831  0.71882654  0.98306790     0.07900
Br3424     Br  0.56577707  0.67909400  0.95556455    -0.02700
C3425       C  0.66790774  0.64261309  0.99290774    -0.09400
C3426       C  0.64022035  0.64292313  0.99799930     0.06800
C3427       C  0.64191004  0.67120940  0.00382069    -0.03100
C3428       C  0.67006870  0.69815548  0.00208138    -0.07600
C3429       C  0.69763009  0.69783752  0.99774054     0.06000
C3430       C  0.69641172  0.66970291  0.99292893    -0.02600
Br3431     Br  0.73278463  0.66782166  0.98278065    -0.02300
H3432       H  0.66740339  0.62132153  0.98842889     0.09900
H3433       H  0.67066746  0.71969032  0.00527246     0.07900
Br3434     Br  0.60782996  0.67498852  0.01861331    -0.02700
C3435       C  0.81150164  0.83588315  0.00780378    -0.09400
C3436       C  0.81177258  0.81248675  0.99038506     0.06800
C3437       C  0.83992225  0.81593031  0.97914373    -0.03100
C3438       C  0.86707478  0.84255956  0.98574006    -0.07600
C3439       C  0.86702244  0.86545229  0.00421933     0.06000
C3440       C  0.83887144  0.86219469  0.01499977    -0.02600
Br3441     Br  0.83656439  0.89167630  0.04154878    -0.02300
H3442       H  0.78996710  0.83288859  0.01720573     0.09900
H3443       H  0.88843599  0.84534652  0.97644368     0.07900
Br3444     Br  0.84294750  0.78418006  0.95683337    -0.02700
C3445       C  0.75293467  0.78621550  0.90330423    -0.09400
C3446       C  0.77177793  0.79350893  0.93089421     0.06800
C3447       C  0.79821283  0.82266594  0.92824478    -0.03100
C3448       C  0.79488209  0.84639184  0.91559364    -0.07600
C3449       C  0.77360336  0.84026306  0.89118102     0.06000
C3450       C  0.75307207  0.80960495  0.88398899    -0.02600
Br3451     Br  0.72400395  0.79906569  0.85010023    -0.02300
H3452       H  0.73759296  0.76300779  0.89683062     0.09900
H3453       H  0.81370658  0.86949796  0.91805036     0.07900
Br3454     Br  0.83197712  0.82524402  0.90372051    -0.02700
C3455       C  0.69334155  0.70950923  0.93005283    -0.09400
C3456       C  0.70729650  0.73815973  0.94457484     0.06800
C3457       C  0.69417702  0.75698671  0.93959237    -0.03100
C3458       C  0.67021264  0.74844325  0.91775378    -0.07600
C3459       C  0.65485546  0.71886675  0.90501018     0.06000
C3460       C  0.66523528  0.69848186  0.91443652    -0.02600
Br3461     Br  0.63976872  0.65486113  0.91308533    -0.02300
H3462       H  0.70251106  0.69433769  0.93394771     0.09900
H3463       H  0.66251038  0.76457989  0.91215110     0.07900
Br3464     Br  0.70811519  0.79448973  0.96183369    -0.02700
C3465       C  0.82575566  0.51248849  0.96941042    -0.09400
C3466       C  0.80732150  0.49749426  0.99656231     0.06800
C3467       C  0.81632276  0.98111944  0.01737786    -0.03100
C3468       C  0.84367600  0.98089252  0.01148168    -0.07600
C3469       C  0.86275512  0.49711312  0.98529372     0.06000
C3470       C  0.85367026  0.51302168  0.96409588    -0.02600
Br3471     Br  0.87810446  0.53488852  0.92732574    -0.02300
H3472       H  0.81845688  0.52402375  0.95242168     0.09900
H3473       H  0.85035854  0.96829605  0.02777385     0.07900
Br3474     Br  0.79100937  0.95679380  0.05272355    -0.02700
C3475       C  0.68965088  0.52065016  0.99961908    -0.09400
C3476       C  0.69147810  0.49634835  0.01412428     0.06800
C3477       C  0.66633552  0.97448777  0.03238371    -0.03100
C3478       C  0.64055944  0.97803118  0.03707486    -0.07600
C3479       C  0.63917487  0.50282091  0.02306977     0.06000
C3480       C  0.66358335  0.52357093  0.00314016    -0.02600
Br3481     Br  0.66104065  0.55380736  0.97665511    -0.02300
H3482       H  0.70841949  0.53709548  0.98463381     0.09900
H3483       H  0.62126150  0.96103428  0.05110340     0.07900
Br3484     Br  0.66551407  0.93882711  0.04997244    -0.02700
C3485       C  0.68655557  0.97777865  0.94314340    -0.09400
C3486       C  0.69833952  0.96217625  0.96129000     0.06800
C3487       C  0.68517663  0.93054839  0.95694467    -0.03100
C3488       C  0.66379450  0.91631990  0.93257054    -0.07600
C3489       C  0.65135108  0.93177942  0.91503995     0.06000
C3490       C  0.66147109  0.96239179  0.92277345    -0.02600
Br3491     Br  0.63947651  0.98315759  0.91060609    -0.02300
H3492       H  0.69635813  0.00204466  0.94520612     0.09900
H3493       H  0.65555918  0.89240548  0.92860310     0.07900
Br3494     Br  0.69257949  0.40487962  0.98571622    -0.02700
C3495       C  0.76502935  0.94061446  0.96349373    -0.09400
C3496       C  0.75786979  0.96310501  0.95402662     0.06800
C3497       C  0.76025661  0.97128765  0.92118548    -0.03100
C3498       C  0.76831885  0.95595984  0.89865965    -0.07600
C3499       C  0.77694277  0.93449673  0.90863130     0.06000
C3500       C  0.77620205  0.92784491  0.94175261    -0.02600
Br3501     Br  0.79289674  0.90389100  0.95968846    -0.02300
H3502       H  0.76382069  0.93436756  0.98859055     0.09900
H3503       H  0.76877811  0.96149150  0.87340752     0.07900
Br3504     Br  0.75573671  0.50492571  0.90626352    -0.02700
C3505       C  0.91435036  0.75112061  0.07281840    -0.09400
C3506       C  0.93011478  0.77606509  0.09325391     0.06800
C3507       C  0.96194885  0.79623357  0.08636686    -0.03100
C3508       C  0.97745555  0.78772611  0.06455636    -0.07600
C3509       C  0.96082527  0.76376101  0.04377635     0.06000
C3510       C  0.92873165  0.74844828  0.04562368    -0.02600
Br3511     Br  0.90416198  0.73226264  0.00816247    -0.02300
H3512       H  0.89003922  0.73540833  0.07543934     0.09900
H3513       H  0.50211881  0.80165712  0.06153462     0.07900
Br3514     Br  0.48437876  0.83819549  0.09878302    -0.02700
C3515       C  0.82743896  0.77749151  0.03832172    -0.09400
C3516       C  0.79919057  0.77511165  0.04570907     0.06800
C3517       C  0.79561016  0.78408842  0.07671924    -0.03100
C3518       C  0.81946528  0.79293841  0.09947454    -0.07600
C3519       C  0.84858186  0.79749979  0.09014664     0.06000
C3520       C  0.85280770  0.79324746  0.05754696    -0.02600
Br3521     Br  0.89264209  0.80634359  0.03839249    -0.02300
H3522       H  0.83014301  0.76805735  0.01663718     0.09900
H3523       H  0.81509528  0.79591638  0.12417132     0.07900
Br3524     Br  0.75935951  0.78497811  0.08904018    -0.02700
C3525       C  0.81615194  0.97965073  0.32574308    -0.09400
C3526       C  0.84425386  0.97985205  0.32438292     0.06800
C3527       C  0.87143938  0.00844442  0.32112077    -0.03100
C3528       C  0.86969046  0.53522456  0.31641613    -0.07600
C3529       C  0.84145936  0.53500374  0.31889171     0.06000
C3530       C  0.81492954  0.50666806  0.32623545    -0.02600
Br3531     Br  0.77820813  0.50277900  0.34485556    -0.02300
H3532       H  0.79502476  0.95825729  0.32930828     0.09900
H3533       H  0.89088886  0.55663940  0.31317838     0.07900
Br3534     Br  0.91146541  0.01311903  0.32757651    -0.02700
C3535       C  0.85381652  0.82847801  0.37072221    -0.09400
C3536       C  0.83251127  0.80393628  0.35257437     0.06800
C3537       C  0.81782457  0.80969826  0.32686501    -0.03100
C3538       C  0.82257046  0.83903305  0.32143122    -0.07600
C3539       C  0.84261567  0.86346810  0.34048017     0.06000
C3540       C  0.85905724  0.85811243  0.36470200    -0.02600
Br3541     Br  0.88958993  0.89073660  0.38915900    -0.02300
H3542       H  0.86657696  0.82461805  0.38941349     0.09900
H3543       H  0.80917669  0.84236512  0.30329594     0.07900
Br3544     Br  0.79201401  0.77862601  0.29747491    -0.02700
C3545       C  0.83058627  0.96968023  0.39601887    -0.09400
C3546       C  0.81421117  0.94080394  0.38169609     0.06800
C3547       C  0.78251809  0.92336778  0.38858664    -0.03100
C3548       C  0.76923284  0.93260105  0.41215497    -0.07600
C3549       C  0.78416490  0.96250390  0.42368992     0.06000
C3550       C  0.81529822  0.98157095  0.41435876    -0.02600
Br3551     Br  0.83653973  0.52474355  0.42060035    -0.02300
H3552       H  0.85467650  0.98429384  0.39009136     0.09900
H3553       H  0.74550029  0.91747400  0.41861680     0.07900
Br3554     Br  0.75453657  0.89192634  0.36089331    -0.02700
C3555       C  0.78514209  0.85005670  0.37177067    -0.09400
C3556       C  0.80783896  0.87769292  0.38425604     0.06800
C3557       C  0.81289454  0.87882884  0.41763879    -0.03100
C3558       C  0.79557754  0.85252980  0.43714956    -0.07600
C3559       C  0.77561360  0.82398873  0.42361750     0.06000
C3560       C  0.77158420  0.82322050  0.38998137    -0.02600
Br3561     Br  0.75011533  0.78617419  0.36612806    -0.02300
H3562       H  0.77996656  0.84883568  0.34648498     0.09900
H3563       H  0.79824863  0.85438732  0.46287294     0.07900
Br3564     Br  0.84365147  0.91487829  0.43766613    -0.02700
C3565       C  0.90300137  0.90967063  0.29161158    -0.09400
C3566       C  0.87250029  0.90156685  0.28586843     0.06800
C3567       C  0.85745460  0.88257864  0.26001319    -0.03100
C3568       C  0.87216982  0.86970171  0.24279980    -0.07600
C3569       C  0.90405082  0.88042597  0.24592170     0.06000
C3570       C  0.91963613  0.90266750  0.26988357    -0.02600
Br3571     Br  0.96336642  0.92861316  0.27303548    -0.02300
H3572       H  0.91478513  0.92418018  0.31159991     0.09900
H3573       H  0.85826084  0.85140751  0.22690760     0.07900
Br3574     Br  0.81728658  0.87407038  0.24697883    -0.02700
C3575       C  0.66600831  0.97763170  0.32348222    -0.09400
C3576       C  0.63952547  0.97677112  0.33575320     0.06800
C3577       C  0.64223250  0.50315606  0.34987854    -0.03100
C3578       C  0.67126229  0.52877308  0.35357479    -0.07600
C3579       C  0.69781911  0.52952494  0.34155579     0.06000
C3580       C  0.69456979  0.50415377  0.32461415    -0.02600
Br3581     Br  0.72620405  0.50600536  0.29725604    -0.02300
H3582       H  0.66410333  0.95795132  0.31143430     0.09900
H3583       H  0.67298711  0.54854820  0.36521454     0.07900
Br3584     Br  0.60761316  0.50654230  0.36347597    -0.02700
C3585       C  0.96901733  0.83682387  0.32513576    -0.09400
C3586       C  0.96736544  0.80845529  0.32066407     0.06800
C3587       C  0.99522747  0.80761093  0.31934272    -0.03100
C3588       C  0.52318677  0.83418021  0.32348759    -0.07600
C3589       C  0.52484707  0.86247042  0.32679489     0.06000
C3590       C  0.99733250  0.86355785  0.32819825    -0.02600
Br3591     Br  0.99719879  0.90057141  0.33685403    -0.02300
H3592       H  0.94819427  0.83825888  0.32707102     0.09900
H3593       H  0.54402072  0.83283772  0.32287781     0.07900
Br3594     Br  0.99810083  0.77194289  0.31046181    -0.02700
C3595       C  0.53840881  0.86242534  0.39870690    -0.09400
C3596       C  0.56501819  0.87073242  0.38005972     0.06800
C3597       C  0.57715063  0.85070453  0.38088761    -0.03100
C3598       C  0.56519243  0.82571048  0.40234239    -0.07600
C3599       C  0.53745593  0.81608287  0.41943738     0.06000
C3600       C  0.52346651  0.83452828  0.41616776    -0.02600
Br3601     Br  0.98177060  0.82073086  0.42935516    -0.02300
H3602       H  0.52721084  0.87603858  0.39666006     0.09900
H3603       H  0.57624406  0.81192603  0.40315178     0.07900
Br3604     Br  0.60389219  0.85051006  0.34807955    -0.02700
C3605       C  0.64748563  0.92072560  0.37548217    -0.09400
C3606       C  0.62587924  0.92975706  0.38191417     0.06800
C3607       C  0.63208381  0.95021790  0.40683580    -0.03100
C3608       C  0.66103557  0.96402596  0.42136799    -0.07600
C3609       C  0.68105536  0.95190382  0.41824752     0.06000
C3610       C  0.67245912  0.92841124  0.39548257    -0.02600
Br3611     Br  0.69069998  0.90313848  0.39072595    -0.02300
H3612       H  0.64539887  0.90801483  0.35433515     0.09900
H3613       H  0.66708496  0.98367693  0.43585378     0.07900
Br3614     Br  0.60109193  0.95812651  0.42320096    -0.02700
C3615       C  0.53663785  0.91800955  0.25347669    -0.09400
C3616       C  0.54892490  0.90188218  0.26965280     0.06800
C3617       C  0.53977749  0.87241877  0.25841407    -0.03100
C3618       C  0.01098197  0.85578221  0.24382983    -0.07600
C3619       C  0.99583753  0.87119279  0.23241704     0.06000
C3620       C  0.51213087  0.90320329  0.23261679    -0.02600
Br3621     Br  0.50137410  0.92737718  0.20514871    -0.02300
H3622       H  0.54446051  0.94117096  0.25682321     0.09900
H3623       H  0.00073447  0.83136276  0.24233264     0.07900
Br3624     Br  0.06678630  0.85569154  0.26113466    -0.02700
C3625       C  0.98251558  0.70875608  0.07774609    -0.09400
C3626       C  0.96261083  0.70789133  0.05350008     0.06800
C3627       C  0.93106769  0.68754246  0.05804579    -0.03100
C3628       C  0.92056450  0.67253541  0.08754486    -0.07600
C3629       C  0.93987426  0.66476811  0.10508123     0.06000
C3630       C  0.97211833  0.68493217  0.10094019    -0.02600
Br3631     Br  0.00386425  0.67989151  0.12080314    -0.02300
H3632       H  0.50681868  0.72504734  0.07571759     0.09900
H3633       H  0.89589348  0.65942151  0.09130738     0.07900
Br3634     Br  0.90377248  0.66915190  0.02304844    -0.02700
C3635       C  0.80098978  0.52465144  0.08020030    -0.09400
C3636       C  0.80119192  0.53235981  0.04773586     0.06800
C3637       C  0.82876571  0.55592712  0.03448153    -0.03100
C3638       C  0.85602012  0.56758322  0.05189150    -0.07600
C3639       C  0.85589375  0.56065156  0.08491604     0.06000
C3640       C  0.82707286  0.54022193  0.09930862    -0.02600
Br3641     Br  0.82021497  0.53511101  0.14486684    -0.02300
H3642       H  0.78050457  0.50649580  0.09096593     0.09900
H3643       H  0.87716949  0.58357178  0.03968835     0.07900
Br3644     Br  0.82975864  0.57509227  0.99403056    -0.02700
C3645       C  0.90220057  0.96888389  0.26719881    -0.09400
C3646       C  0.87110217  0.95862278  0.27427708     0.06800
C3647       C  0.85490801  0.96759701  0.25303287    -0.03100
C3648       C  0.87112486  0.49067805  0.22975636    -0.07600
C3649       C  0.90284562  0.50223551  0.22437920     0.06000
C3650       C  0.91699107  0.98786708  0.24082198    -0.02600
Br3651     Br  0.95728573  0.99481090  0.22953538    -0.02300
H3652       H  0.91592985  0.96373948  0.28313294     0.09900
H3653       H  0.85909920  0.50038258  0.21695909     0.07900
Br3654     Br  0.81098236  0.94909050  0.25456646    -0.02700
C3655       C  0.76436862  0.70664956  0.05718072    -0.09400
C3656       C  0.74241810  0.71542431  0.04963378     0.06800
C3657       C  0.71515662  0.70249229  0.06832193    -0.03100
C3658       C  0.70765828  0.67717468  0.08822017    -0.07600
C3659       C  0.72958533  0.66840942  0.09608575     0.06000
C3660       C  0.75924637  0.68553781  0.08195729    -0.02600
Br3661     Br  0.79434202  0.68294651  0.09653801    -0.02300
H3662       H  0.78590447  0.71649597  0.04405304     0.09900
H3663       H  0.68452090  0.66472141  0.09789612     0.07900
Br3664     Br  0.68923122  0.72036029  0.07150279    -0.02700
C3665       C  0.74333004  0.55929257  0.04210335    -0.09400
C3666       C  0.74185944  0.53288688  0.05505340     0.06800
C3667       C  0.73142276  0.52459916  0.08712149    -0.03100
C3668       C  0.72491770  0.54381825  0.10566826    -0.07600
C3669       C  0.72231631  0.56799243  0.09140049     0.06000
C3670       C  0.73056179  0.57444736  0.05833197    -0.02600
Br3671     Br  0.72069435  0.59983532  0.03157257    -0.02300
H3672       H  0.75061708  0.56568605  0.01737572     0.09900
H3673       H  0.72051450  0.53874880  0.13102303     0.07900
Br3674     Br  0.72194020  0.98603671  0.10602075    -0.02700
C3675       C  0.59921827  0.51074131  0.25833885    -0.09400
C3676       C  0.62726532  0.52112368  0.24156914     0.06800
C3677       C  0.64228768  0.00375051  0.24489876    -0.03100
C3678       C  0.62803275  0.97590211  0.26219716    -0.07600
C3679       C  0.60132658  0.96703736  0.28074361     0.06000
C3680       C  0.58779202  0.98579573  0.27962760    -0.02600
Br3681     Br  0.55298229  0.97824664  0.30595401    -0.02300
H3682       H  0.58700817  0.52340694  0.25661188     0.09900
H3683       H  0.63947017  0.96251133  0.26364688     0.07900
Br3684     Br  0.68425466  0.01900847  0.23187520    -0.02700
C3685       C  0.63902049  0.64511035  0.34067520    -0.09400
C3686       C  0.64124407  0.67375650  0.33629072     0.06800
C3687       C  0.67019967  0.69945827  0.33028033    -0.03100
C3688       C  0.69614485  0.69605422  0.32820991    -0.07600
C3689       C  0.69378392  0.66713143  0.33096569     0.06000
C3690       C  0.66465321  0.64139085  0.33731447    -0.02600
Br3691     Br  0.65757279  0.60050076  0.34212367    -0.02300
H3692       H  0.61677617  0.62526479  0.34548643     0.09900
H3693       H  0.71823337  0.71614590  0.32345784     0.07900
Br3694     Br  0.67526196  0.73904936  0.32168301    -0.02700
C3695       C  0.00166431  0.70743265  0.33816077    -0.09400
C3696       C  0.97494225  0.68275169  0.32617755     0.06800
C3697       C  0.97838557  0.66528591  0.30266881    -0.03100
C3698       C  0.00734353  0.66870413  0.29735343    -0.07600
C3699       C  0.53202054  0.68553753  0.31824348     0.06000
C3700       C  0.53031737  0.70973350  0.33277685    -0.02600
Br3701     Br  0.56530681  0.74821059  0.34003997    -0.02300
H3702       H  0.00035675  0.72460974  0.35215010     0.09900
H3703       H  0.01008496  0.66016935  0.27522729     0.07900
Br3704     Br  0.94574163  0.63978823  0.27432351    -0.02700
C3705       C  0.52282833  0.67190609  0.38861107    -0.09400
C3706       C  0.55534937  0.68694479  0.38721240     0.06800
C3707       C  0.57000197  0.70671334  0.41278583    -0.03100
C3708       C  0.55666736  0.72315212  0.42491051    -0.07600
C3709       C  0.52523463  0.71277853  0.42077401     0.06000
C3710       C  0.50754792  0.68460240  0.40545607    -0.02600
Br3711     Br  0.96341533  0.66410112  0.40382455    -0.02300
H3712       H  0.50935463  0.65276540  0.37354494     0.09900
H3713       H  0.56950243  0.74124246  0.44159317     0.07900
Br3714     Br  0.58460610  0.69202749  0.44756387    -0.02700
C3715       C  0.65972264  0.74579593  0.41822373    -0.09400
C3716       C  0.67481078  0.73073497  0.43084051     0.06800
C3717       C  0.66343866  0.70007516  0.42165209    -0.03100
C3718       C  0.63665230  0.68526059  0.40315584    -0.07600
C3719       C  0.62456137  0.70172036  0.38690916     0.06000
C3720       C  0.63763559  0.73293887  0.39426094    -0.02600
Br3721     Br  0.63014670  0.76105298  0.37054240    -0.02300
H3722       H  0.66732234  0.76913457  0.42457252     0.09900
H3723       H  0.62735969  0.66131771  0.39844085     0.07900
Br3724     Br  0.68602803  0.67871224  0.42721816    -0.02700
C3725       C  0.98805864  0.59820445  0.27413812    -0.09400
C3726       C  0.99127489  0.60410255  0.24084927     0.06800
C3727       C  0.52078741  0.62522016  0.22843791    -0.03100
C3728       C  0.54512361  0.64212140  0.24944936    -0.07600
C3729       C  0.54099402  0.63736413  0.28286413     0.06000
C3730       C  0.51261853  0.61353516  0.29483573    -0.02600
Br3731     Br  0.00480050  0.60303158  0.33963567    -0.02300
H3732       H  0.96595346  0.58186656  0.28444305     0.09900
H3733       H  0.56695707  0.65972165  0.23977808     0.07900
Br3734     Br  0.52965384  0.63129311  0.18331068    -0.02700
C3735       C  0.63191274  0.66401805  0.26667557    -0.09400
C3736       C  0.60350832  0.64577685  0.28267375     0.06800
C3737       C  0.58920776  0.61396406  0.27868014    -0.03100
C3738       C  0.60137331  0.60185616  0.25700666    -0.07600
C3739       C  0.63122906  0.61945083  0.24389259     0.06000
C3740       C  0.64724041  0.65088964  0.25082900    -0.02600
Br3741     Br  0.69115707  0.67567967  0.24630243    -0.02300
H3742       H  0.64410136  0.68835400  0.27026434     0.09900
H3743       H  0.58867277  0.57751044  0.25329785     0.07900
Br3744     Br  0.55775426  0.58493259  0.30684265    -0.02700
loop_ 
_geom_bond_atom_site_label_1 
_geom_bond_atom_site_label_2 
_geom_bond_distance 
_geom_bond_site_symmetry_2 
_ccdc_geom_bond_type 
C1            C2   1.419       .  A
C1            C6   1.432       .  A
C1          C878   1.490       .  S
C2            C3   1.414       .  A
C2          C928   1.520       .  S
C3            C4   1.442       .  A
C3          C921   1.494       .  S
C4            C5   1.458       .  A
C4          C891   1.548       .  S
C5            C6   1.448       .  A
C5          C898   1.543       .  S
C6          C911   1.522       .  S
C7            C8   1.403       .  A
C7           C12   1.423       .  A
C7          C931   1.513       .  S
C8            C9   1.405       .  A
C8           H27   1.084       .  S
C9           C10   1.426       .  A
C9          C868   1.509       .  S
C10          C11   1.420       .  A
C10          C17   1.406       .  A
C11          C12   1.425       .  A
C11          C16   1.428       .  A
C12          C13   1.400       .  A
C13          C14   1.390       .  A
C13          H23   1.078       .  S
C14          C15   1.407       .  A
C14          H24   1.080       .  S
C15          C16   1.422       .  A
C15          C22   1.420       .  A
C16          C19   1.427       .  A
C17          C18   1.401       .  A
C17          H25   1.082       .  S
C18          C19   1.409       .  A
C18          H26   1.079       .  S
C19          C20   1.434       .  A
C20          C21   1.405       .  A
C20         C861   1.523       .  S
C21          C22   1.401       .  A
C21          H28   1.075       .  S
C22         C851   1.510       .  S
C29          C30   1.397       .  A
C29          C34   1.420       .  A
C29         C918   1.502       .  S
C30          C31   1.401       .  A
C30          H49   1.080       .  S
C31          C32   1.417       .  A
C31         C841   1.502       .  S
C32          C33   1.424       .  A
C32          C39   1.403       .  A
C33          C34   1.422       .  A
C33          C38   1.423       .  A
C34          C35   1.406       .  A
C35          C36   1.397       .  A
C35          H45   1.082       .  S
C36          C37   1.403       .  A
C36          H46   1.082       .  S
C37          C38   1.428       .  A
C37          C44   1.423       .  A
C38          C41   1.425       .  A
C39          C40   1.395       .  A
C39          H47   1.083       .  S
C40          C41   1.406       .  A
C40          H48   1.083       .  S
C41          C42   1.417       .  A
C42          C43   1.396       .  A
C42         C831   1.513       .  S
C43          C44   1.412       .  A
C43          H50   1.076       .  S
C44         C821   1.523       .  S
C51          C52   1.424       .  A
C51          C56   1.425       .  A
C51         C768   1.496       .  S
C52          C53   1.428       .  A
C52         C871   1.502       .  S
C53          C54   1.437       .  A
C53         C808   1.517       .  S
C54          C55   1.424       .  A
C54         C781   1.498       .  S
C55          C56   1.424       .  A
C55         C788   1.515       .  S
C56         C798   1.494       .  S
C57          C58   1.436       .  A
C57          C62   1.444       .  A
C57         C718   1.512       .  S
C58          C59   1.424       .  A
C58         C838   1.511       .  S
C59          C60   1.413       .  A
C59         C758   1.494       .  S
C60          C61   1.426       .  A
C60         C731   1.505       .  S
C61          C62   1.435       .  A
C61         C748   1.513       .  S
C62         C738   1.516       .  S
C63          C64   1.409       .  A
C63          C68   1.437       .  A
C63         C761   1.522       .  S
C64          C65   1.399       .  A
C64          H83   1.078       .  S
C65          C66   1.400       .  A
C65         C811   1.491       .  S
C66          C67   1.421       .  A
C66          C73   1.402       .  A
C67          C68   1.424       .  A
C67          C72   1.417       .  A
C68          C69   1.413       .  A
C69          C70   1.404       .  A
C69          H79   1.080       .  S
C70          C71   1.403       .  A
C70          H80   1.081       .  S
C71          C72   1.426       .  A
C71          C78   1.424       .  A
C72          C75   1.421       .  A
C73          C74   1.384       .  A
C73          H81   1.075       .  S
C74          C75   1.400       .  A
C74          H82   1.083       .  S
C75          C76   1.404       .  A
C76          C77   1.396       .  A
C76         C698   1.508       .  S
C77          C78   1.400       .  A
C77          H84   1.077       .  S
C78         C711   1.507       .  S
C85          C86   1.424   1_565  A
C85        C1026   1.423   1_554  A
C85         C658   1.499   1_554  S
C86          C87   1.423       .  A
C86         C828   1.503       .  S
C87          C88   1.429   1_545  A
C87         C858   1.505       .  S
C88        C1025   1.427   1_554  A
C88         C668   1.491       .  S
C89          C90   1.422       .  A
C89        C1024   1.427   1_556  A
C89         C678   1.509       .  S
C90        C1021   1.423   1_556  A
C90         C688   1.500       .  S
C91          C92   1.438   1_556  A
C91          C96   1.445       .  A
C91         C628   1.477       .  S
C92          C93   1.413       .  A
C92         C708   1.521       .  S
C93          C94   1.424   1_554  A
C93         C848   1.510       .  S
C94          C95   1.437       .  A
C94         C621   1.499       .  S
C95          C96   1.444       .  A
C95         C648   1.501       .  S
C96         C638   1.567       .  S
C97         C102   1.434   1_655  A
C97        C1970   1.417   1_556  A
C97         C578   1.492   1_556  S
C98          C99   1.414       .  A
C98        C1969   1.417   1_554  A
C98         C818   1.507       .  S
C99        C1972   1.415   1_554  A
C99         C701   1.482       .  S
C100        C101   1.423   1_655  A
C100       C1971   1.415   1_556  A
C100        C588   1.496       .  S
C101        C102   1.430       .  A
C101        C601   1.500       .  S
C102        C611   1.510       .  S
C103        C104   1.448       .  A
C103        C108   1.439       .  A
C103        C528   1.489       .  S
C104        C105   1.439       .  A
C104        C558   1.557       .  S
C105        C106   1.427       .  A
C105        C571   1.482       .  S
C106        C107   1.410       .  A
C106        C518   1.503       .  S
C107        C108   1.421       .  A
C107        C548   1.502       .  S
C108        C541   1.522       .  S
C109        C110   1.399       .  A
C109        C114   1.424       .  A
C109        C651   1.507       .  S
C110        C111   1.401       .  A
C110        H129   1.084       .  S
C111        C112   1.419       .  A
C111        C608   1.501       .  S
C112        C113   1.425       .  A
C112        C119   1.404       .  A
C113        C114   1.424       .  A
C113        C118   1.428       .  A
C114        C115   1.405       .  A
C115        C116   1.390       .  A
C115        H125   1.079       .  S
C116        C117   1.400       .  A
C116        H126   1.080       .  S
C117        C118   1.427       .  A
C117        C124   1.422       .  A
C118        C121   1.423       .  A
C119        C120   1.385       .  A
C119        H127   1.072       .  S
C120        C121   1.399       .  A
C120        H128   1.080       .  S
C121        C122   1.415       .  A
C122        C123   1.401       .  A
C122        C508   1.513       .  S
C123        C124   1.404       .  A
C123        H130   1.075       .  S
C124        C551   1.520       .  S
C131        C132   1.400       .  A
C131        C136   1.422       .  A
C131        C598   1.490       .  S
C132        C133   1.395       .  A
C132        H151   1.085       .  S
C133        C134   1.423       .  A
C133        C681   1.508       .  S
C134        C135   1.428       .  A
C134        C141   1.402       .  A
C135        C136   1.419       .  A
C135        C140   1.426       .  A
C136        C137   1.409       .  A
C137        C138   1.401       .  A
C137        H147   1.081       .  S
C138        C139   1.404       .  A
C138        H148   1.080       .  S
C139        C140   1.432       .  A
C139        C146   1.434       .  A
C140        C143   1.419       .  A
C141        C142   1.390       .  A
C141        H149   1.081       .  S
C142        C143   1.406       .  A
C142        H150   1.080       .  S
C143        C144   1.407       .  A
C144        C145   1.405       .  A
C144        C538   1.490       .  S
C145        C146   1.405       .  A
C145        H152   1.081       .  S
C146        C498   1.533       .  S
C153        C154   1.433       .  A
C153        C158   1.427       .  A
C153        C458   1.513       .  S
C154        C155   1.423       .  A
C154        C511   1.499       .  S
C155        C156   1.431       .  A
C155        C471   1.518       .  S
C156        C157   1.425       .  A
C156        C451   1.487       .  S
C157        C158   1.423       .  A
C157        C478   1.515       .  S
C158        C488   1.488       .  S
C159        C160   1.428       .  A
C159        C164   1.440       .  A
C159        C401   1.495       .  S
C160        C161   1.418       .  A
C160        C501   1.525       .  S
C161        C162   1.434       .  A
C161        C418   1.504       .  S
C162        C163   1.434       .  A
C162        C411   1.490       .  S
C163        C164   1.432       .  A
C163        C428   1.527       .  S
C164        C438   1.517       .  S
C165        C166   1.403       .  A
C165        C170   1.426       .  A
C165        C691   1.495       .  S
C166        C167   1.393       .  A
C166        H185   1.085       .  S
C167        C168   1.413       .  A
C167        C641   1.483       .  S
C168        C169   1.419       .  A
C168        C175   1.402       .  A
C169        C170   1.424       .  A
C169        C174   1.428       .  A
C170        C171   1.407       .  A
C171        C172   1.397       .  A
C171        H181   1.081       .  S
C172        C173   1.407       .  A
C172        H182   1.082       .  S
C173        C174   1.425       .  A
C173        C180   1.422       .  A
C174        C177   1.430       .  A
C175        C176   1.392       .  A
C175        H183   1.082       .  S
C176        C177   1.406       .  A
C176        H184   1.078       .  S
C177        C178   1.424       .  A
C178        C179   1.406       .  A
C178        C421   1.520       .  S
C179        C180   1.406       .  A
C179        H186   1.078       .  S
C180        C468   1.516       .  S
C187        C188   1.403       .  A
C187        C192   1.409   1_455  A
C187        C901   1.496       .  S
C188        C189   1.415       .  A
C188        H207   1.083       .  S
C189        C190   1.433       .  A
C189        C791   1.523       .  S
C190        C191   1.426   1_455  A
C190        C197   1.407       .  A
C191        C192   1.420       .  A
C191       C2068   1.429       .  A
C192        C193   1.400       .  A
C193       C2066   1.382       .  A
C193        H203   1.076       .  S
C194        C195   1.400       .  A
C194       C2065   1.382       .  A
C194        H204   1.078       .  S
C195        C196   1.430       .  A
C195        C202   1.421       .  A
C196        C199   1.423       .  A
C196       C2063   1.429       .  A
C197       C2070   1.401   1_455  A
C197        H205   1.081       .  S
C198        C199   1.407       .  A
C198       C2069   1.401       .  A
C198        H206   1.082       .  S
C199        C200   1.423       .  A
C200        C201   1.398       .  A
C200        C441   1.507       .  S
C201        C202   1.397       .  A
C201        H208   1.075       .  S
C202        C491   1.517       .  S
C209        C210   1.401       .  A
C209        C214   1.419       .  A
C209        C908   1.520       .  S
C210        C211   1.404       .  A
C210        H229   1.080       .  S
C211        C212   1.428       .  A
C211        C751   1.511       .  S
C212        C213   1.424       .  A
C212        C219   1.409       .  A
C213        C214   1.429       .  A
C213        C218   1.431       .  A
C214        C215   1.397       .  A
C215        C216   1.386       .  A
C215        H225   1.081       .  S
C216        C217   1.408       .  A
C216        H226   1.075       .  S
C217        C218   1.421       .  A
C217        C224   1.421       .  A
C218        C221   1.428       .  A
C219        C220   1.402       .  A
C219        H227   1.080       .  S
C220        C221   1.407       .  A
C220        H228   1.082       .  S
C221        C222   1.435       .  A
C222        C223   1.406       .  A
C222        C431   1.523       .  S
C223        C224   1.402       .  A
C223        H230   1.084       .  S
C224        C568   1.501       .  S
C231        C232   1.405       .  A
C231        C236   1.430       .  A
C231        C801   1.525       .  S
C232        C233   1.408       .  A
C232        H251   1.080       .  S
C233        C234   1.426       .  A
C233        C741   1.516       .  S
C234        C235   1.425       .  A
C234        C241   1.403       .  A
C235        C236   1.427       .  A
C235       C1176   1.435       .  A
C236        C237   1.404       .  A
C237       C1174   1.386       .  A
C237        H247   1.077       .  S
C238        C239   1.399   1_565  A
C238       C1173   1.386       .  A
C238        H248   1.078       .  S
C239        C240   1.424       .  A
C239        C246   1.415       .  A
C240        C243   1.427       .  A
C240       C1171   1.435   1_545  A
C241       C1178   1.399       .  A
C241        H249   1.079       .  S
C242        C243   1.411       .  A
C242       C1177   1.399   1_545  A
C242        H250   1.078       .  S
C243        C244   1.437       .  A
C244        C245   1.408       .  A
C244        C481   1.519       .  S
C245        C246   1.398       .  A
C245        H252   1.081       .  S
C246        C561   1.503       .  S
O253        C288   1.235       .  S
O253       Mg261   2.156   1_554  S
O253      Mg2127   2.131   1_455  S
C254        H293   1.081       .  S
C254        O267   1.234       .  S
C254        O291   1.269       .  A
Mg255       O284   2.158   1_554  S
Mg255      O2125   2.131       .  S
Mg255       O299   2.272   1_554  S
Mg255       O295   2.247       .  S
Mg255       O266   2.300       .  S
O256        C277   1.235       .  S
O256       Mg298   2.163   1_554  S
O256       Mg281   2.161       .  S
O257       C1224   1.271       .  A
O257       Mg281   2.306   1_565  S
C258        C661   1.472       .  S
C258        O272   1.271   1_565  A
C258       O1196   1.267       .  A
O259       C2159   1.270   1_455  A
O259       Mg261   2.300       .  S
O260       C1194   1.267       .  A
O260       Mg292   2.249       .  S
Mg261      O1203   2.169       .  S
Mg261       O275   2.293       .  S
Mg261       O263   2.279   1_556  S
C262        C581   1.466       .  S
C262        O268   1.277   1_655  A
C262       O2172   1.265       .  A
O263       C1206   1.270       .  A
H264        C277   1.081       .  S
C265        H290   1.081       .  S
C265        O279   1.235       .  S
C265       O1216   1.271       .  A
O266        C289   1.268       .  A
O267       Mg281   2.151   1_556  S
O267      Mg1197   2.169   1_545  S
O268       Mg298   2.321   1_554  S
C269        C618   1.492       .  S
C269        O282   1.274       .  A
C269        O274   1.277   1_556  A
C270        C671   1.471       .  S
C270        O297   1.272       .  A
C270       O1199   1.270   1_545  A
Mg271       O279   2.151   1_554  S
Mg271      O1214   2.129   1_545  S
Mg271       O272   2.312   1_554  S
Mg271       O273   2.308       .  S
Mg271       O300   2.209       .  S
O273       C2149   1.271       .  A
O274       Mg281   2.324       .  S
O275       C2166   1.272       .  A
O276        C296   1.268       .  A
O276       Mg292   2.270   1_554  S
C277       O2145   1.271   1_455  A
O278        C289   1.233       .  S
O278       Mg292   2.137   1_554  S
O278      Mg1207   2.129       .  S
O279      Mg2170   2.155       .  S
O280       C1201   1.271       .  A
O280       Mg292   2.306       .  S
Mg281       O297   2.264       .  S
O282       Mg298   2.273       .  S
H283        C288   1.081       .  S
O284        C287   1.235       .  S
O284       Mg292   2.149       .  S
H285        C287   1.081       .  S
H286        C289   1.081       .  S
C287       O2131   1.270       .  A
C288       O1193   1.271       .  A
O291       Mg298   2.303       .  S
C294        C591   1.488       .  S
C294        O299   1.270       .  A
C294       O2147   1.272       .  A
O295        C296   1.269       .  A
C296        C631   1.467       .  S
Mg298      O2151   2.155   1_455  S
O300       C2134   1.265       .  A
O301        C336   1.235       .  S
O301       Mg303   2.157       .  S
O301       Mg309   2.157       .  S
C302        H341   1.081       .  S
C302        O315   1.237       .  S
C302        O339   1.274       .  A
Mg303       O332   2.146       .  S
Mg303       O347   2.325       .  S
Mg303       O343   2.273       .  S
Mg303       O314   2.312       .  S
O304        C325   1.234       .  S
O304       Mg346   2.127       .  S
O304       Mg329   2.097       .  S
O305        C336   1.271       .  A
O305       Mg329   2.313       .  S
C306        C881   1.478       .  S
C306        O308   1.270       .  A
C306        O320   1.270       .  A
O307        C335   1.268       .  A
O307       Mg309   2.306       .  S
O308       Mg340   2.262       .  S
Mg309       O315   2.178       .  S
Mg309       O323   2.294       .  S
Mg309       O311   2.288       .  S
C310        C728   1.472       .  S
C310        O348   1.273       .  A
C310        O316   1.265       .  A
O311        C318   1.273       .  A
H312        C325   1.081       .  S
C313        H338   1.081       .  S
C313        O327   1.234       .  S
C313        O328   1.268       .  A
O314        C337   1.271       .  A
O315       Mg329   2.162       .  S
O316       Mg346   2.272       .  S
C317        C778   1.489       .  S
C317        O330   1.266       .  A
C317        O322   1.266       .  A
C318        C888   1.464       .  S
C318        O345   1.257       .  A
Mg319       O326   2.171       .  S
Mg319       O327   2.139       .  S
Mg319       O320   2.258       .  S
Mg319       O321   2.300       .  S
Mg319       O348   2.292       .  S
O321        C325   1.268       .  A
O322       Mg329   2.282       .  S
O323        C342   1.274       .  A
O324        C344   1.274       .  A
O324       Mg340   2.295       .  S
O326        C337   1.235       .  S
O326       Mg340   2.168       .  S
O327       Mg346   2.132       .  S
O328       Mg340   2.295       .  S
Mg329       O345   2.169       .  S
O330       Mg346   2.254       .  S
H331        C336   1.081       .  S
O332        C335   1.232       .  S
O332       Mg340   2.157       .  S
H333        C335   1.081       .  S
H334        C337   1.081       .  S
O339       Mg346   2.320       .  S
C342        C721   1.505       .  S
C342        O347   1.276       .  A
O343        C344   1.272       .  A
C344        C771   1.481       .  S
O349        C384   1.235       .  S
O349       Mg351   2.129       .  S
O349       Mg357   2.153       .  S
C350        H389   1.081       .  S
C350        O363   1.234       .  S
C350        O387   1.267       .  A
Mg351       O380   2.154       .  S
Mg351       O395   2.283       .  S
Mg351       O391   2.244       .  S
Mg351       O362   2.307       .  S
O352        C373   1.235       .  S
O352       Mg394   2.164       .  S
O352       Mg377   2.150       .  S
O353        C384   1.270       .  A
O353       Mg377   2.302       .  S
C354        C408   1.483       .  S
C354        O356   1.269       .  A
C354        O368   1.274       .  A
O355        C383   1.269       .  A
O355       Mg357   2.296       .  S
O356       Mg388   2.236       .  S
Mg357       O363   2.125       .  S
Mg357       O371   2.233       .  S
Mg357       O359   2.271       .  S
C358        C521   1.494       .  S
C358        O396   1.273       .  A
C358        O364   1.273       .  A
O359        C366   1.269       .  A
H360        C373   1.081       .  S
C361        H386   1.081       .  S
C361        O375   1.234       .  S
C361        O376   1.270       .  A
O362        C385   1.270       .  A
O363       Mg377   2.146       .  S
O364       Mg394   2.298       .  S
C365        C461   1.488       .  S
C365        O378   1.276       .  A
C365        O370   1.268       .  A
C366        C398   1.464       .  S
C366        O393   1.268       .  A
Mg367       O374   2.166       .  S
Mg367       O375   2.146       .  S
Mg367       O368   2.308       .  S
Mg367       O369   2.310       .  S
Mg367       O396   2.274       .  S
O369        C373   1.271       .  A
O370       Mg377   2.273       .  S
O371        C390   1.268       .  A
O372        C392   1.276       .  A
O372       Mg388   2.319       .  S
O374        C385   1.234       .  S
O374       Mg388   2.162       .  S
O375       Mg394   2.166       .  S
O376       Mg388   2.309       .  S
Mg377       O393   2.254       .  S
O378       Mg394   2.294       .  S
H379        C384   1.081       .  S
O380        C383   1.236       .  S
O380       Mg388   2.139       .  S
H381        C383   1.081       .  S
H382        C385   1.081       .  S
O387       Mg394   2.287       .  S
C390        C531   1.476       .  S
C390        O395   1.271       .  A
O391        C392   1.267       .  A
C392        C448   1.493       .  S
C397        C398   1.402       .  A
C397        C402   1.392       .  A
C397        H404   1.084       .  S
C398        C399   1.402       .  A
C399       C2272   1.397   1_455  A
C399       Br406   1.917       .  S
C400        C401   1.411       .  A
C400       C2271   1.397       .  A
C400        H405   1.084       .  S
C401       C2274   1.411       .  A
C402       C2273   1.411   1_455  A
C402       Br403   1.918       .  S
C407        C408   1.405       .  A
C407        C412   1.396       .  A
C407        H414   1.083       .  S
C408        C409   1.416       .  A
C409        C410   1.398       .  A
C409       Br416   1.922       .  S
C410        C411   1.400       .  A
C410        H415   1.084       .  S
C411        C412   1.415       .  A
C412       Br413   1.930       .  S
C417        C418   1.393       .  A
C417        C422   1.393       .  A
C417        H424   1.074       .  S
C418        C419   1.417       .  A
C419        C420   1.415       .  A
C419       Br426   1.918       .  S
C420        C421   1.414       .  A
C420        H425   1.082       .  S
C421        C422   1.410       .  A
C422       Br423   1.904       .  S
C427        C428   1.410       .  A
C427        C432   1.405       .  A
C427        H434   1.070       .  S
C428        C429   1.410       .  A
C429        C430   1.409       .  A
C429       Br436   1.917       .  S
C430        C431   1.418       .  A
C430        H435   1.079       .  S
C431        C432   1.412       .  A
C432       Br433   1.923       .  S
C437        C438   1.406       .  A
C437        C442   1.394       .  A
C437        H444   1.081       .  S
C438        C439   1.421       .  A
C439        C440   1.410       .  A
C439       Br446   1.916       .  S
C440        C441   1.408       .  A
C440        H445   1.082       .  S
C441        C442   1.415       .  A
C442      Br2315   1.928       .  S
Br443      C2314   1.928       .  S
C447        C448   1.411       .  A
C447        C452   1.401       .  A
C447        H454   1.081       .  S
C448        C449   1.419       .  A
C449       C1386   1.397       .  A
C449      Br1392   1.923       .  S
C450        C451   1.399       .  A
C450       C1385   1.397       .  A
C450        H455   1.083       .  S
C451       C1388   1.403   1_545  A
C452       C1387   1.403       .  A
C452       Br453   1.922       .  S
Br456      C1385   1.923       .  S
C457        C458   1.404       .  A
C457       C2334   1.403       .  A
C457        H464   1.084       .  S
C458       C2331   1.423       .  A
C459        C460   1.397   1_655  A
C459       C2330   1.423       .  A
C459       Br466   1.906       .  S
C460        C461   1.396       .  A
C460        H465   1.084       .  S
C461        C462   1.418   1_455  A
C462       C2329   1.403       .  A
C462      Br2335   1.922       .  S
Br463      C2334   1.922       .  S
C467        C468   1.412       .  A
C467       C1408   1.406       .  A
C467        H474   1.081       .  S
C468        C469   1.417       .  A
C469       C1406   1.400       .  A
C469       Br476   1.922       .  S
C470        C471   1.407       .  A
C470       C1405   1.400       .  A
C470        H475   1.079       .  S
C471        C472   1.412       .  A
C472       C1403   1.406       .  A
C472       Br473   1.918       .  S
C477        C478   1.403       .  A
C477        C482   1.404       .  A
C477        H484   1.077       .  S
C478        C479   1.412       .  A
C479        C480   1.404       .  A
C479      Br1422   1.907       .  S
C480        C481   1.408       .  A
C480       H1421   1.082       .  S
C481        C482   1.423       .  A
C482       Br483   1.926       .  S
H485       C1416   1.082       .  S
Br486      C1415   1.907       .  S
C487        C488   1.398       .  A
C487        C492   1.396       .  A
C487        H494   1.080       .  S
C488        C489   1.400       .  A
C489        C490   1.399       .  A
C489       Br496   1.917       .  S
C490        C491   1.416       .  A
C490        H495   1.078       .  S
C491        C492   1.422       .  A
C492       Br493   1.927       .  S
C497        C498   1.418       .  A
C497       C2374   1.403   1_455  A
C497        H504   1.081       .  S
C498       C2371   1.423   1_455  A
C499        C500   1.415       .  A
C499       C2370   1.423       .  A
C499       Br506   1.921       .  S
C500        C501   1.409       .  A
C500        H505   1.072       .  S
C501        C502   1.406       .  A
C502       C2369   1.403       .  A
C502      Br2375   1.915       .  S
Br503      C2374   1.915   1_455  S
C507        C508   1.410       .  A
C507       C2384   1.384   1_455  A
C507        H514   1.080       .  S
C508       C2381   1.425   1_455  A
C509        C510   1.409       .  A
C509       C2380   1.425       .  A
C509       Br516   1.923       .  S
C510        C511   1.407       .  A
C510        H515   1.082       .  S
C511        C512   1.397       .  A
C512       C2379   1.384       .  A
C512      Br2385   1.914       .  S
Br513      C2384   1.914       .  S
C517        C518   1.401       .  A
C517        C522   1.395       .  A
C517        H524   1.081       .  S
C518        C519   1.408       .  A
C519        C520   1.402       .  A
C519       Br526   1.917       .  S
C520        C521   1.412       .  A
C520        H525   1.083       .  S
C521        C522   1.419       .  A
C522       Br523   1.923       .  S
C527        C528   1.405       .  A
C527       C1468   1.397   1_545  A
C527        H534   1.084       .  S
C528       C1465   1.410   1_545  A
C529        C530   1.392       .  A
C529       C1464   1.410       .  A
C529       Br536   1.918       .  S
C530        C531   1.405       .  A
C530        H535   1.083       .  S
C531        C532   1.412       .  A
C532       C1463   1.397       .  A
C532      Br1469   1.919       .  S
Br533      C1468   1.919       .  S
C537        C542   1.411       .  A
C537       C1474   1.410   1_545  A
C537        H544   1.082   1_545  S
C538        C539   1.399       .  A
C538       C1473   1.410       .  A
C539       C1476   1.380       .  A
C539       Br546   1.926       .  S
C540        C541   1.402       .  A
C540       C1475   1.380       .  A
C540        H545   1.052       .  S
C541        C542   1.419       .  A
C542       Br543   1.918       .  S
C547        C548   1.408       .  A
C547        C552   1.411       .  A
C547        H554   1.082       .  S
C548        C549   1.406       .  A
C549        C550   1.388       .  A
C549       Br556   1.932       .  S
C550        C551   1.413       .  A
C550        H555   1.082       .  S
C551        C552   1.425       .  A
C552       Br553   1.924       .  S
C557        C558   1.416       .  A
C557        C562   1.413       .  A
C557        H564   1.080       .  S
C558        C559   1.414       .  A
C559        C560   1.403       .  A
C559       Br566   1.923       .  S
C560        C561   1.405       .  A
C560        H565   1.084       .  S
C561        C562   1.414       .  A
C562      Br1499   1.922   1_545  S
Br563      C1498   1.922       .  S
C567        C568   1.408       .  A
C567        C572   1.397       .  A
C567        H574   1.082       .  S
C568        C569   1.419       .  A
C569        C570   1.396       .  A
C569       Br576   1.919       .  S
C570        C571   1.400       .  A
C570        H575   1.084       .  S
C571        C572   1.408       .  A
C572       Br573   1.919       .  S
C577        C578   1.409   1_455  A
C577        C582   1.395       .  A
C577        H584   1.080       .  S
C578       C2451   1.406   1_554  A
C579        C580   1.396       .  A
C579       C2450   1.406   1_556  A
C579       Br586   1.917       .  S
C580       C2453   1.405   1_556  A
C580        H585   1.084       .  S
C581        C582   1.400   1_655  A
C581       C2452   1.405   1_554  A
C582       Br583   1.916       .  S
C587        C592   1.393       .  A
C587       C2460   1.397       .  A
C587        H594   1.081       .  S
C588        C589   1.411   1_655  A
C588       C2459   1.397       .  A
C589        C590   1.405       .  A
C589       Br596   1.918   1_556  S
C590       C2463   1.409       .  A
C590        H595   1.083   1_556  S
C591        C592   1.413       .  A
C591       C2462   1.409       .  A
C592       Br593   1.915       .  S
C597        C598   1.402       .  A
C597        C602   1.399       .  A
C597        H604   1.083       .  S
C598        C599   1.414       .  A
C599        C600   1.394       .  A
C599       Br606   1.922       .  S
C600        C601   1.402       .  A
C600        H605   1.083       .  S
C601        C602   1.418       .  A
C602      Br2475   1.921   1_455  S
Br603      C2474   1.921       .  S
C607        C608   1.408       .  A
C607        C612   1.405       .  A
C607        H614   1.080       .  S
C608        C609   1.409       .  A
C609        C610   1.386       .  A
C609       Br616   1.917       .  S
C610        C611   1.401       .  A
C610        H615   1.075       .  S
C611        C612   1.417       .  A
C612       Br613   1.910   1_455  S
C617        C618   1.410       .  A
C617        C622   1.406       .  A
C617        H624   1.083       .  S
C618        C619   1.414   1_556  A
C619        C620   1.394       .  A
C619       Br626   1.911       .  S
C620        C621   1.399   1_554  A
C620        H625   1.084       .  S
C621        C622   1.410       .  A
C622       Br623   1.917       .  S
C627        C628   1.404   1_554  A
C627        C632   1.395       .  A
C627        H634   1.084       .  S
C628        C629   1.410       .  A
C629        C630   1.392       .  A
C629       Br636   1.938       .  S
C630        C631   1.402   1_556  A
C630        H635   1.078       .  S
C631        C632   1.408       .  A
C632       Br633   1.920       .  S
C637        C638   1.423       .  A
C637        C642   1.416       .  A
C637        H644   1.076       .  S
C638        C639   1.413       .  A
C639        C640   1.385       .  A
C639       Br646   1.922       .  S
C640        C641   1.398       .  A
C640        H645   1.085       .  S
C641        C642   1.409       .  A
C642       Br643   1.914       .  S
C647        C648   1.407       .  A
C647        C652   1.398       .  A
C647        H654   1.081       .  S
C648        C649   1.411       .  A
C649        C650   1.400       .  A
C649       Br656   1.922       .  S
C650        C651   1.414       .  A
C650        H655   1.083       .  S
C651        C652   1.414       .  A
C652       Br653   1.926       .  S
C657        C658   1.409   1_545  A
C657        C662   1.401       .  A
C657        H664   1.083       .  S
C658       C1595   1.409   1_556  A
C659        C660   1.397       .  A
C659       C1594   1.409   1_554  A
C659       Br666   1.919       .  S
C660       C1597   1.403   1_554  A
C660        H665   1.084       .  S
C661        C662   1.404   1_565  A
C661       C1596   1.403   1_556  A
C662       Br663   1.916       .  S
C667        C668   1.402   1_546  A
C667        C672   1.392   1_556  A
C667        H674   1.083       .  S
C668       C1605   1.407       .  A
C669        C670   1.401       .  A
C669       C1604   1.407       .  A
C669       Br676   1.914       .  S
C670       C1607   1.405       .  A
C670        H675   1.083       .  S
C671        C672   1.408       .  A
C671       C1606   1.405   1_545  A
C672       Br673   1.925   1_554  S
C677        C678   1.408       .  A
C677        C682   1.401       .  A
C677        H684   1.077       .  S
C678        C679   1.410       .  A
C679        C680   1.401       .  A
C679      Br1622   1.918       .  S
C680        C681   1.412       .  A
C680        H685   1.082       .  S
C681        C682   1.412       .  A
C682       Br683   1.922       .  S
Br686      C1615   1.918       .  S
C687        C688   1.401       .  A
C687        C692   1.389       .  A
C687        H694   1.082       .  S
C688        C689   1.412       .  A
C689        C690   1.407       .  A
C689      Br1632   1.916       .  S
C690        C691   1.408       .  A
C690        H695   1.083       .  S
C691        C692   1.413       .  A
C692       Br693   1.922       .  S
Br696      C1625   1.916   1_545  S
C697        C698   1.412       .  A
C697        C702   1.387       .  A
C697        H704   1.079       .  S
C698        C699   1.429       .  A
C699        C700   1.399       .  A
C699      Br2578   1.925       .  S
C700        C701   1.397       .  A
C700       H2577   1.083       .  S
C701        C702   1.397       .  A
C702       Br703   1.918       .  S
H705       C2572   1.083   1_455  S
Br706      C2571   1.925       .  S
C707        C708   1.392       .  A
C707        C712   1.383       .  A
C707        H714   1.069       .  S
C708        C709   1.419       .  A
C709        C710   1.420       .  A
C709       Br716   1.908       .  S
C710        C711   1.411       .  A
C710        H715   1.082       .  S
C711        C712   1.413       .  A
C712       Br713   1.930       .  S
C717        C718   1.403       .  A
C717       C1658   1.397       .  A
C717        H724   1.082       .  S
C718        C719   1.416       .  A
C719       C1656   1.408       .  A
C719       Br726   1.918       .  S
C720        C721   1.411       .  A
C720       C1655   1.408       .  A
C720        H725   1.083       .  S
C721        C722   1.417       .  A
C722       C1653   1.397   1_545  A
C722       Br723   1.912       .  S
C727        C728   1.405       .  A
C727        C732   1.404       .  A
C727        H734   1.083       .  S
C728        C729   1.407       .  A
C729        C730   1.394       .  A
C729       Br736   1.924       .  S
C730        C731   1.405       .  A
C730        H735   1.077       .  S
C731        C732   1.409       .  A
C732       Br733   1.914       .  S
C737        C738   1.416       .  A
C737        C742   1.415       .  A
C737        H744   1.083       .  S
C738        C739   1.408       .  A
C739        C740   1.396       .  A
C739       Br746   1.920       .  S
C740        C741   1.407       .  A
C740        H745   1.078       .  S
C741        C742   1.417       .  A
C742      Br1679   1.919       .  S
Br743      C1678   1.919   1_545  S
C747        C748   1.403       .  A
C747        C752   1.389       .  A
C747        H754   1.083       .  S
C748        C749   1.414       .  A
C749        C750   1.414       .  A
C749       Br756   1.915       .  S
C750        C751   1.414       .  A
C750        H755   1.082       .  S
C751        C752   1.417       .  A
C752       Br753   1.930       .  S
C757        C758   1.393       .  A
C757        C762   1.394       .  A
C757        H764   1.084       .  S
C758        C759   1.405       .  A
C759        C760   1.404       .  A
C759       Br766   1.918       .  S
C760        C761   1.416       .  A
C760        H765   1.079       .  S
C761        C762   1.430       .  A
C762       Br763   1.922       .  S
C767        C768   1.401       .  A
C767       C1708   1.395       .  A
C767        H774   1.084       .  S
C768       C1705   1.411       .  A
C769        C770   1.399       .  A
C769       C1704   1.411   1_545  A
C769       Br776   1.910       .  S
C770        C771   1.403       .  A
C770        H775   1.083       .  S
C771        C772   1.412       .  A
C772       C1703   1.395   1_545  A
C772       Br773   1.915       .  S
C777        C778   1.410       .  A
C777        C782   1.400       .  A
C777        H784   1.083       .  S
C778        C779   1.417       .  A
C779       C2652   1.393       .  A
C779       Br786   1.919       .  S
C780        C781   1.399       .  A
C780       C2651   1.393   1_455  A
C780        H785   1.078       .  S
C781       C2654   1.406   1_455  A
C782       C2653   1.406       .  A
C782       Br783   1.914       .  S
C787        C788   1.410       .  A
C787        C792   1.413       .  A
C787        H794   1.083       .  S
C788        C789   1.414       .  A
C789        C790   1.402       .  A
C789       Br796   1.918       .  S
C790        C791   1.411       .  A
C790        H795   1.083       .  S
C791        C792   1.421       .  A
C792      Br2665   1.921   1_455  S
Br793      C2664   1.921       .  S
C797        C798   1.393       .  A
C797        C802   1.394       .  A
C797        H804   1.075       .  S
C798        C799   1.403       .  A
C799        C800   1.404       .  A
C799       Br806   1.911       .  S
C800        C801   1.416       .  A
C800        H805   1.080       .  S
C801        C802   1.425       .  A
C802       Br803   1.914       .  S
C807        C808   1.405       .  A
C807        C812   1.392       .  A
C807        H814   1.047       .  S
C808        C809   1.413       .  A
C809       C2682   1.405       .  A
C809      Br2688   1.919       .  S
C810        C811   1.407       .  A
C810       C2681   1.405       .  A
C810        H815   1.079       .  S
C811       C2684   1.405       .  A
C812       C2683   1.405   1_455  A
C812       Br813   1.923       .  S
Br816      C2681   1.919       .  S
C817        C818   1.407       .  A
C817        C822   1.412       .  A
C817       H2696   1.082       .  S
C818        C819   1.404       .  A
C819        C820   1.392       .  A
C819       Br826   1.913       .  S
C820        C821   1.411       .  A
C820        H825   1.084       .  S
C821        C822   1.428       .  A
C822       Br823   1.916       .  S
H824       C2689   1.082   1_455  S
C827        C828   1.402       .  A
C827        C832   1.403       .  A
C827        H834   1.072       .  S
C828        C829   1.406       .  A
C829        C830   1.399       .  A
C829       Br836   1.920   1_554  S
C830        C831   1.415       .  A
C830        H835   1.082       .  S
C831        C832   1.418       .  A
C832       Br833   1.922       .  S
C837        C838   1.405       .  A
C837        C842   1.392       .  A
C837        H844   1.074       .  S
C838        C839   1.414       .  A
C839       C1776   1.408       .  A
C839       Br846   1.917       .  S
C840        C841   1.411   1_565  A
C840       C1775   1.408       .  A
C840        H845   1.082   1_565  S
C841       C1778   1.410   1_545  A
C842       C1777   1.410       .  A
C842       Br843   1.925       .  S
C847        C848   1.407       .  A
C847        C852   1.401       .  A
C847        H854   1.081       .  S
C848        C849   1.413       .  A
C849        C850   1.398       .  A
C849       Br856   1.918       .  S
C850        C851   1.409       .  A
C850        H855   1.081       .  S
C851        C852   1.418       .  A
C852       Br853   1.924       .  S
C857        C858   1.398       .  A
C857        C862   1.398       .  A
C857        H864   1.083       .  S
C858        C859   1.415       .  A
C859        C860   1.409       .  A
C859      Br1802   1.916   1_545  S
C860        C861   1.412       .  A
C860        H865   1.081       .  S
C861        C862   1.425       .  A
C862       Br863   1.927       .  S
Br866      C1795   1.916       .  S
C867        C868   1.412       .  A
C867       C1808   1.397   1_545  A
C867        H874   1.083       .  S
C868       C1805   1.415       .  A
C869        C870   1.407       .  A
C869       C1804   1.415       .  A
C869       Br876   1.919       .  S
C870        C871   1.407       .  A
C870        H875   1.082       .  S
C871        C872   1.412       .  A
C872       C1803   1.397       .  A
C872       Br873   1.927       .  S
C877        C878   1.404       .  A
C877        C882   1.393       .  A
C877        H884   1.083       .  S
C878        C879   1.405       .  A
C879        C880   1.395       .  A
C879       Br886   1.914       .  S
C880        C881   1.409       .  A
C880        H885   1.083       .  S
C881        C882   1.413       .  A
C882       Br883   1.922       .  S
C887        C888   1.402       .  A
C887       C2764   1.398       .  A
C887        H894   1.083       .  S
C888        C889   1.397       .  A
C889        C890   1.389       .  A
C889       Br896   1.924       .  S
C890       C2763   1.413       .  A
C890        H895   1.063       .  S
C891        C892   1.413       .  A
C891       C2762   1.413       .  A
C892       C2759   1.398       .  A
C892       Br893   1.895       .  S
C897        C898   1.416       .  A
C897        C902   1.411       .  A
C897        H904   1.078       .  S
C898        C899   1.410       .  A
C899        C900   1.398       .  A
C899       Br906   1.922       .  S
C900        C901   1.403       .  A
C900        H905   1.084       .  S
C901        C902   1.416       .  A
C902      Br2775   1.922   1_455  S
Br903      C2774   1.922       .  S
C907        C908   1.408       .  A
C907        C912   1.400       .  A
C907        H914   1.083       .  S
C908        C909   1.421       .  A
C909        C910   1.408       .  A
C909       Br916   1.922       .  S
C910        C911   1.413       .  A
C910        H915   1.081       .  S
C911        C912   1.416       .  A
C912       Br913   1.901       .  S
C917        C918   1.408       .  A
C917       C2794   1.393       .  A
C917        H924   1.083       .  S
C918       C2791   1.417       .  A
C919        C920   1.407       .  A
C919       C2790   1.417   1_455  A
C919       Br926   1.919       .  S
C920        C921   1.409       .  A
C920        H925   1.083       .  S
C921        C922   1.415       .  A
C922       C2789   1.393   1_455  A
C922      Br2795   1.921       .  S
Br923      C2794   1.921       .  S
C927        C928   1.413       .  A
C927        C932   1.408       .  A
C927        H934   1.082       .  S
C928        C929   1.412       .  A
C929        C930   1.396       .  A
C929       Br936   1.914       .  S
C930        C931   1.411       .  A
C930        H935   1.083       .  S
C931        C932   1.416       .  A
C932       Br933   1.924       .  S
C937        C938   1.419       .  A
C937        C942   1.432       .  A
C937       C1814   1.490       .  S
C938        C939   1.414       .  A
C938       C1864   1.520       .  S
C939        C940   1.442       .  A
C939       C1857   1.494       .  S
C940        C941   1.458       .  A
C940       C1827   1.548       .  S
C941        C942   1.448       .  A
C941       C1834   1.543       .  S
C942       C1847   1.522       .  S
C943        C944   1.403       .  A
C943        C948   1.423       .  A
C943       C1867   1.513       .  S
C944        C945   1.405       .  A
C944        H963   1.084       .  S
C945        C946   1.426       .  A
C945       C1804   1.509       .  S
C946        C947   1.420       .  A
C946        C953   1.406       .  A
C947        C948   1.425       .  A
C947        C952   1.428       .  A
C948        C949   1.400       .  A
C949        C950   1.390       .  A
C949        H959   1.078       .  S
C950        C951   1.407       .  A
C950        H960   1.080       .  S
C951        C952   1.422       .  A
C951        C958   1.420       .  A
C952        C955   1.427       .  A
C953        C954   1.401       .  A
C953        H961   1.082       .  S
C954        C955   1.409       .  A
C954        H962   1.079       .  S
C955        C956   1.434       .  A
C956        C957   1.405       .  A
C956       C1797   1.523       .  S
C957        C958   1.401       .  A
C957        H964   1.075       .  S
C958       C1787   1.510       .  S
C965        C966   1.397       .  A
C965        C970   1.420       .  A
C965       C1854   1.502       .  S
C966        C967   1.401       .  A
C966        H985   1.080       .  S
C967        C968   1.417       .  A
C967       C1777   1.502       .  S
C968        C969   1.424       .  A
C968        C975   1.403       .  A
C969        C970   1.422       .  A
C969        C974   1.423       .  A
C970        C971   1.406       .  A
C971        C972   1.397       .  A
C971        H981   1.082       .  S
C972        C973   1.403       .  A
C972        H982   1.082       .  S
C973        C974   1.428       .  A
C973        C980   1.423       .  A
C974        C977   1.425       .  A
C975        C976   1.395       .  A
C975        H983   1.083       .  S
C976        C977   1.406       .  A
C976        H984   1.083       .  S
C977        C978   1.417       .  A
C978        C979   1.396       .  A
C978       C1767   1.513       .  S
C979        C980   1.412       .  A
C979        H986   1.076       .  S
C980       C1757   1.523       .  S
C987        C988   1.424       .  A
C987        C992   1.425       .  A
C987       C1704   1.496       .  S
C988        C989   1.428       .  A
C988       C1807   1.502       .  S
C989        C990   1.437       .  A
C989       C1744   1.517       .  S
C990        C991   1.424       .  A
C990       C1717   1.498       .  S
C991        C992   1.424       .  A
C991       C1724   1.515       .  S
C992       C1734   1.494       .  S
C993        C994   1.436       .  A
C993        C998   1.444       .  A
C993       C1654   1.512       .  S
C994        C995   1.424       .  A
C994       C1774   1.511       .  S
C995        C996   1.413       .  A
C995       C1694   1.494       .  S
C996        C997   1.426       .  A
C996       C1667   1.505       .  S
C997        C998   1.435       .  A
C997       C1684   1.513       .  S
C998       C1674   1.516       .  S
C999       C1000   1.409       .  A
C999       C1004   1.437       .  A
C999       C1697   1.522       .  S
C1000      C1001   1.399       .  A
C1000      H1019   1.078       .  S
C1001      C1002   1.401       .  A
C1001      C1747   1.491       .  S
C1002      C1003   1.421       .  A
C1002      C1009   1.402       .  A
C1003      C1004   1.424       .  A
C1003      C1008   1.417       .  A
C1004      C1005   1.413       .  A
C1005      C1006   1.404       .  A
C1005      H1015   1.080       .  S
C1006      C1007   1.403       .  A
C1006      H1016   1.081       .  S
C1007      C1008   1.426       .  A
C1007      C1014   1.424       .  A
C1008      C1011   1.421       .  A
C1009      C1010   1.384       .  A
C1009      H1017   1.075       .  S
C1010      C1011   1.400       .  A
C1010      H1018   1.083       .  S
C1011      C1012   1.404       .  A
C1012      C1013   1.396       .  A
C1012      C1634   1.508       .  S
C1013      C1014   1.400       .  A
C1013      H1020   1.077       .  S
C1014      C1647   1.507       .  S
C1021      C1022   1.424       .  A
C1021      C1594   1.500   1_554  S
C1022      C1023   1.424       .  A
C1022      C1764   1.503       .  S
C1023      C1024   1.429       .  A
C1023      C1794   1.505       .  S
C1024      C1604   1.491       .  S
C1025      C1026   1.422       .  A
C1025      C1614   1.509       .  S
C1026      C1624   1.500       .  S
C1027      C1028   1.438   1_556  A
C1027      C1032   1.445       .  A
C1027      C1564   1.477       .  S
C1028      C1029   1.413       .  A
C1028      C1644   1.521       .  S
C1029      C1030   1.424   1_554  A
C1029      C1784   1.510       .  S
C1030      C1031   1.437       .  A
C1030      C1557   1.499       .  S
C1031      C1032   1.444       .  A
C1031      C1584   1.501       .  S
C1032      C1574   1.567       .  S
C1033      C2906   1.417   1_556  A
C1033      C1038   1.434   1_655  A
C1033      C1514   1.492   1_556  S
C1034      C2905   1.417   1_554  A
C1034      C1035   1.414       .  A
C1034      C1754   1.507       .  S
C1035      C2908   1.415   1_554  A
C1035      C1637   1.482       .  S
C1036      C2907   1.415   1_556  A
C1036      C1037   1.423   1_655  A
C1036      C1524   1.496       .  S
C1037      C1038   1.430       .  A
C1037      C1537   1.500       .  S
C1038      C1547   1.510       .  S
C1039      C1040   1.448       .  A
C1039      C1044   1.439       .  A
C1039      C1464   1.489       .  S
C1040      C1041   1.439       .  A
C1040      C1494   1.557       .  S
C1041      C1042   1.427       .  A
C1041      C1507   1.482       .  S
C1042      C1043   1.410       .  A
C1042      C1454   1.503       .  S
C1043      C1044   1.421       .  A
C1043      C1484   1.502       .  S
C1044      C1477   1.522       .  S
C1045      C1046   1.399       .  A
C1045      C1050   1.424       .  A
C1045      C1587   1.507       .  S
C1046      C1047   1.401       .  A
C1046      H1065   1.084       .  S
C1047      C1048   1.419       .  A
C1047      C1544   1.501       .  S
C1048      C1049   1.425       .  A
C1048      C1055   1.404       .  A
C1049      C1050   1.424       .  A
C1049      C1054   1.428       .  A
C1050      C1051   1.405       .  A
C1051      C1052   1.390       .  A
C1051      H1061   1.079       .  S
C1052      C1053   1.400       .  A
C1052      H1062   1.080       .  S
C1053      C1054   1.427       .  A
C1053      C1060   1.422       .  A
C1054      C1057   1.423       .  A
C1055      C1056   1.385       .  A
C1055      H1063   1.072       .  S
C1056      C1057   1.399       .  A
C1056      H1064   1.080       .  S
C1057      C1058   1.415       .  A
C1058      C1059   1.401       .  A
C1058      C1444   1.513       .  S
C1059      C1060   1.404       .  A
C1059      H1066   1.075       .  S
C1060      C1487   1.520       .  S
C1067      C1068   1.400       .  A
C1067      C1072   1.422       .  A
C1067      C1534   1.490       .  S
C1068      C1069   1.395       .  A
C1068      H1087   1.085       .  S
C1069      C1070   1.423       .  A
C1069      C1617   1.508       .  S
C1070      C1071   1.428       .  A
C1070      C1077   1.402       .  A
C1071      C1072   1.419       .  A
C1071      C1076   1.426       .  A
C1072      C1073   1.409       .  A
C1073      C1074   1.401       .  A
C1073      H1083   1.081       .  S
C1074      C1075   1.404       .  A
C1074      H1084   1.080       .  S
C1075      C1076   1.432       .  A
C1075      C1082   1.434       .  A
C1076      C1079   1.419       .  A
C1077      C1078   1.390       .  A
C1077      H1085   1.081       .  S
C1078      C1079   1.406       .  A
C1078      H1086   1.080       .  S
C1079      C1080   1.407       .  A
C1080      C1081   1.405       .  A
C1080      C1474   1.490       .  S
C1081      C1082   1.405       .  A
C1081      H1088   1.081       .  S
C1082      C1434   1.533       .  S
C1089      C1090   1.433       .  A
C1089      C1094   1.427       .  A
C1089      C1394   1.513       .  S
C1090      C1091   1.423       .  A
C1090      C1447   1.499       .  S
C1091      C1092   1.431       .  A
C1091      C1407   1.518       .  S
C1092      C1093   1.425       .  A
C1092      C1387   1.487       .  S
C1093      C1094   1.423       .  A
C1093      C1414   1.515       .  S
C1094      C1424   1.488       .  S
C1095      C1096   1.428       .  A
C1095      C1100   1.440       .  A
C1095      C1337   1.495       .  S
C1096      C1097   1.418       .  A
C1096      C1437   1.525       .  S
C1097      C1098   1.434       .  A
C1097      C1354   1.504       .  S
C1098      C1099   1.434       .  A
C1098      C1347   1.490       .  S
C1099      C1100   1.432       .  A
C1099      C1364   1.527       .  S
C1100      C1374   1.517       .  S
C1101      C1102   1.403       .  A
C1101      C1106   1.426       .  A
C1101      C1627   1.495       .  S
C1102      C1103   1.393       .  A
C1102      H1121   1.085       .  S
C1103      C1104   1.413       .  A
C1103      C1577   1.484       .  S
C1104      C1105   1.419       .  A
C1104      C1111   1.402       .  A
C1105      C1106   1.424       .  A
C1105      C1110   1.428       .  A
C1106      C1107   1.407       .  A
C1107      C1108   1.397       .  A
C1107      H1117   1.081       .  S
C1108      C1109   1.407       .  A
C1108      H1118   1.082   1_565  S
C1109      C1110   1.425       .  A
C1109      C1116   1.422       .  A
C1110      C1113   1.430       .  A
C1111      C1112   1.392       .  A
C1111      H1119   1.082       .  S
C1112      C1113   1.406       .  A
C1112      H1120   1.078       .  S
C1113      C1114   1.423       .  A
C1114      C1115   1.406       .  A
C1114      C1357   1.520       .  S
C1115      C1116   1.406       .  A
C1115      H1122   1.078       .  S
C1116      C1404   1.516   1_565  S
C1123      C1124   1.403       .  A
C1123      C1128   1.409   1_455  A
C1123      C1837   1.496       .  S
C1124      C1125   1.415       .  A
C1124      H1143   1.083       .  S
C1125      C1126   1.433       .  A
C1125      C1727   1.523       .  S
C1126      C1127   1.426   1_455  A
C1126      C1133   1.407       .  A
C1127      C1128   1.420       .  A
C1127      C3004   1.429       .  A
C1128      C1129   1.400       .  A
C1129      C3002   1.382       .  A
C1129      H1139   1.076       .  S
C1130      C3001   1.382       .  A
C1130      C1131   1.400       .  A
C1130      H1140   1.078       .  S
C1131      C1132   1.430       .  A
C1131      C1138   1.421       .  A
C1132      C2999   1.429       .  A
C1132      C1135   1.423       .  A
C1133      C3006   1.401   1_455  A
C1133      H1141   1.081       .  S
C1134      C3005   1.401       .  A
C1134      C1135   1.407       .  A
C1134      H1142   1.082       .  S
C1135      C1136   1.423       .  A
C1136      C1137   1.398       .  A
C1136      C1377   1.507       .  S
C1137      C1138   1.397       .  A
C1137      H1144   1.075       .  S
C1138      C1427   1.517       .  S
C1145      C1146   1.401       .  A
C1145      C1150   1.419       .  A
C1145      C1844   1.520       .  S
C1146      C1147   1.404       .  A
C1146      H1165   1.080       .  S
C1147      C1148   1.428       .  A
C1147      C1687   1.511       .  S
C1148      C1149   1.424       .  A
C1148      C1155   1.409       .  A
C1149      C1150   1.429       .  A
C1149      C1154   1.431       .  A
C1150      C1151   1.397       .  A
C1151      C1152   1.386       .  A
C1151      H1161   1.081       .  S
C1152      C1153   1.408       .  A
C1152      H1162   1.075       .  S
C1153      C1154   1.421       .  A
C1153      C1160   1.421       .  A
C1154      C1157   1.428       .  A
C1155      C1156   1.402       .  A
C1155      H1163   1.080       .  S
C1156      C1157   1.407       .  A
C1156      H1164   1.082       .  S
C1157      C1158   1.436       .  A
C1158      C1159   1.406       .  A
C1158      C1367   1.523       .  S
C1159      C1160   1.402       .  A
C1159      H1166   1.084       .  S
C1160      C1504   1.501       .  S
C1167      C1168   1.405       .  A
C1167      C1172   1.430       .  A
C1167      C1737   1.525       .  S
C1168      C1169   1.408       .  A
C1168      H1187   1.080       .  S
C1169      C1170   1.426       .  A
C1169      C1677   1.516       .  S
C1170      C1171   1.425       .  A
C1170      C1177   1.403       .  A
C1171      C1172   1.427       .  A
C1172      C1173   1.404       .  A
C1173      H1183   1.077       .  S
C1174      C1175   1.399       .  A
C1174      H1184   1.078       .  S
C1175      C1176   1.424       .  A
C1175      C1182   1.415       .  A
C1176      C1179   1.427       .  A
C1177      H1185   1.079       .  S
C1178      C1179   1.411       .  A
C1178      H1186   1.078       .  S
C1179      C1180   1.437       .  A
C1180      C1181   1.408       .  A
C1180      C1417   1.519       .  S
C1181      C1182   1.398       .  A
C1181      H1188   1.081       .  S
C1182      C1497   1.503       .  S
O1189      C1224   1.235       .  S
O1189     Mg3063   2.131   1_455  S
O1189     Mg1197   2.156   1_554  S
C1190      H1229   1.081       .  S
C1190      O1203   1.234       .  S
C1190      O1227   1.269       .  A
Mg1191     O3061   2.131       .  S
Mg1191     O1220   2.158   1_554  S
Mg1191     O1235   2.272   1_554  S
Mg1191     O1231   2.247       .  S
Mg1191     O1202   2.300       .  S
O1192      C1213   1.235       .  S
O1192     Mg1234   2.163   1_554  S
O1192     Mg1217   2.161       .  S
O1193     Mg1217   2.306       .  S
C1194      C1597   1.472       .  S
C1194      O1208   1.271       .  A
O1195      C3095   1.270   1_455  A
O1195     Mg1197   2.300       .  S
O1196     Mg1228   2.248       .  S
Mg1197     O1211   2.293       .  S
Mg1197     O1199   2.279   1_556  S
C1198      C1517   1.466       .  S
C1198      O3108   1.265       .  A
C1198      O1204   1.277   1_655  A
H1200      C1213   1.081       .  S
C1201      H1226   1.081       .  S
C1201      O1215   1.235       .  S
O1202      C1225   1.268       .  A
O1203     Mg1217   2.151   1_556  S
O1204     Mg1234   2.321   1_554  S
C1205      C1554   1.492       .  S
C1205      O1218   1.274       .  A
C1205      O1210   1.277   1_556  A
C1206      C1607   1.471       .  S
C1206      O1233   1.272       .  A
Mg1207     O1215   2.151   1_554  S
Mg1207     O1208   2.312   1_554  S
Mg1207     O1209   2.308       .  S
Mg1207     O1236   2.209       .  S
O1209      C3085   1.271       .  A
O1210     Mg1217   2.324       .  S
O1211      C3102   1.272       .  A
O1212      C1232   1.268       .  A
O1212     Mg1228   2.270   1_554  S
C1213      O3081   1.271   1_455  A
O1214      C1225   1.233       .  S
O1214     Mg1228   2.137   1_554  S
O1215     Mg3106   2.155       .  S
O1216     Mg1228   2.306   1_545  S
Mg1217     O1233   2.264       .  S
O1218     Mg1234   2.273       .  S
H1219      C1224   1.081       .  S
O1220      C1223   1.235       .  S
O1220     Mg1228   2.149       .  S
H1221      C1223   1.081       .  S
H1222      C1225   1.081       .  S
C1223      O3067   1.270       .  A
O1227     Mg1234   2.303       .  S
C1230      C1527   1.488       .  S
C1230      O3083   1.272       .  A
C1230      O1235   1.270       .  A
O1231      C1232   1.269       .  A
C1232      C1567   1.467       .  S
Mg1234     O3087   2.155   1_455  S
O1236      C3070   1.265       .  A
O1237      C1272   1.235       .  S
O1237     Mg1239   2.157       .  S
O1237     Mg1245   2.157       .  S
C1238      H1277   1.081       .  S
C1238      O1251   1.237       .  S
C1238      O1275   1.274       .  A
Mg1239     O1268   2.146       .  S
Mg1239     O1283   2.325       .  S
Mg1239     O1279   2.273       .  S
Mg1239     O1250   2.312       .  S
O1240      C1261   1.234       .  S
O1240     Mg1282   2.127       .  S
O1240     Mg1265   2.097       .  S
O1241      C1272   1.271       .  A
O1241     Mg1265   2.313       .  S
C1242      C1817   1.478       .  S
C1242      O1244   1.270       .  A
C1242      O1256   1.270       .  A
O1243      C1271   1.268       .  A
O1243     Mg1245   2.306       .  S
O1244     Mg1276   2.262       .  S
Mg1245     O1251   2.178       .  S
Mg1245     O1259   2.295       .  S
Mg1245     O1247   2.288       .  S
C1246      C1664   1.472       .  S
C1246      O1284   1.273       .  A
C1246      O1252   1.265       .  A
O1247      C1254   1.273       .  A
H1248      C1261   1.081       .  S
C1249      H1274   1.081       .  S
C1249      O1263   1.234       .  S
C1249      O1264   1.268       .  A
O1250      C1273   1.271       .  A
O1251     Mg1265   2.162       .  S
O1252     Mg1282   2.272       .  S
C1253      C1714   1.489       .  S
C1253      O1266   1.266       .  A
C1253      O1258   1.266       .  A
C1254      C1824   1.464       .  S
C1254      O1281   1.257       .  A
Mg1255     O1262   2.171       .  S
Mg1255     O1263   2.139       .  S
Mg1255     O1256   2.258       .  S
Mg1255     O1257   2.300       .  S
Mg1255     O1284   2.292       .  S
O1257      C1261   1.268       .  A
O1258     Mg1265   2.282       .  S
O1259      C1278   1.274       .  A
O1260      C1280   1.274       .  A
O1260     Mg1276   2.295       .  S
O1262      C1273   1.235       .  S
O1262     Mg1276   2.168       .  S
O1263     Mg1282   2.132       .  S
O1264     Mg1276   2.295       .  S
Mg1265     O1281   2.169       .  S
O1266     Mg1282   2.254       .  S
H1267      C1272   1.081       .  S
O1268      C1271   1.232       .  S
O1268     Mg1276   2.157       .  S
H1269      C1271   1.081       .  S
H1270      C1273   1.081       .  S
O1275     Mg1282   2.320       .  S
C1278      C1657   1.505       .  S
C1278      O1283   1.276       .  A
O1279      C1280   1.272       .  A
C1280      C1707   1.481       .  S
O1285      C1320   1.235       .  S
O1285     Mg1287   2.129       .  S
O1285     Mg1293   2.153       .  S
C1286      H1325   1.081       .  S
C1286      O1299   1.234       .  S
C1286      O1323   1.267       .  A
Mg1287     O1316   2.154       .  S
Mg1287     O1331   2.283       .  S
Mg1287     O1327   2.244       .  S
Mg1287     O1298   2.307       .  S
O1288      C1309   1.235       .  S
O1288     Mg1330   2.164       .  S
O1288     Mg1313   2.150       .  S
O1289      C1320   1.270       .  A
O1289     Mg1313   2.302       .  S
C1290      C1344   1.483       .  S
C1290      O1292   1.269       .  A
C1290      O1304   1.274       .  A
O1291      C1319   1.269       .  A
O1291     Mg1293   2.296       .  S
O1292     Mg1324   2.236       .  S
Mg1293     O1299   2.125       .  S
Mg1293     O1307   2.233       .  S
Mg1293     O1295   2.271       .  S
C1294      C1457   1.494       .  S
C1294      O1332   1.273       .  A
C1294      O1300   1.273       .  A
O1295      C1302   1.269       .  A
H1296      C1309   1.081       .  S
C1297      H1322   1.081       .  S
C1297      O1311   1.234       .  S
C1297      O1312   1.270       .  A
O1298      C1321   1.270       .  A
O1299     Mg1313   2.146       .  S
O1300     Mg1330   2.298       .  S
C1301      C1397   1.488       .  S
C1301      O1314   1.276       .  A
C1301      O1306   1.268       .  A
C1302      C1334   1.464       .  S
C1302      O1329   1.268       .  A
Mg1303     O1310   2.166       .  S
Mg1303     O1311   2.146       .  S
Mg1303     O1304   2.308       .  S
Mg1303     O1305   2.310       .  S
Mg1303     O1332   2.274       .  S
O1305      C1309   1.271       .  A
O1306     Mg1313   2.274       .  S
O1307      C1326   1.268       .  A
O1308      C1328   1.276       .  A
O1308     Mg1324   2.319       .  S
O1310      C1321   1.234       .  S
O1310     Mg1324   2.162       .  S
O1311     Mg1330   2.166       .  S
O1312     Mg1324   2.309       .  S
Mg1313     O1329   2.254       .  S
O1314     Mg1330   2.294       .  S
H1315      C1320   1.081       .  S
O1316      C1319   1.236       .  S
O1316     Mg1324   2.139       .  S
H1317      C1319   1.081       .  S
H1318      C1321   1.081       .  S
O1323     Mg1330   2.287       .  S
C1326      C1467   1.476       .  S
C1326      O1331   1.271       .  A
O1327      C1328   1.267       .  A
C1328      C1384   1.494       .  S
C1333      C1334   1.402       .  A
C1333      C1338   1.392       .  A
C1333      H1340   1.084       .  S
C1334      C1335   1.402       .  A
C1335      C3208   1.397   1_455  A
C1335     Br1342   1.917       .  S
C1336      C3207   1.397       .  A
C1336      C1337   1.411       .  A
C1336      H1341   1.084       .  S
C1337      C3210   1.411       .  A
C1338      C3209   1.411   1_455  A
C1338     Br1339   1.918       .  S
C1343      C1344   1.405       .  A
C1343      C1348   1.396       .  A
C1343      H1350   1.083       .  S
C1344      C1345   1.416       .  A
C1345      C1346   1.398       .  A
C1345     Br1352   1.922       .  S
C1346      C1347   1.400       .  A
C1346      H1351   1.084       .  S
C1347      C1348   1.415       .  A
C1348     Br1349   1.930       .  S
C1353      C1354   1.393       .  A
C1353      C1358   1.393       .  A
C1353      H1360   1.074       .  S
C1354      C1355   1.417       .  A
C1355      C1356   1.415       .  A
C1355     Br1362   1.918       .  S
C1356      C1357   1.414       .  A
C1356      H1361   1.082       .  S
C1357      C1358   1.410       .  A
C1358     Br1359   1.904       .  S
C1363      C1364   1.410       .  A
C1363      C1368   1.405       .  A
C1363      H1370   1.070       .  S
C1364      C1365   1.410       .  A
C1365      C1366   1.409       .  A
C1365     Br1372   1.917       .  S
C1366      C1367   1.418       .  A
C1366      H1371   1.079       .  S
C1367      C1368   1.412       .  A
C1368     Br1369   1.923       .  S
C1373      C1374   1.406       .  A
C1373      C1378   1.393       .  A
C1373      H1380   1.081       .  S
C1374      C1375   1.421       .  A
C1375      C1376   1.410       .  A
C1375     Br1382   1.916       .  S
C1376      C1377   1.408       .  A
C1376      H1381   1.082       .  S
C1377      C1378   1.415       .  A
C1378     Br3251   1.928       .  S
Br1379     C3250   1.928       .  S
C1383      C1384   1.411       .  A
C1383      C1388   1.401       .  A
C1383      H1390   1.081       .  S
C1384      C1385   1.419   1_565  A
C1386      C1387   1.399       .  A
C1386      H1391   1.083       .  S
C1388     Br1389   1.922       .  S
C1393      C1394   1.404       .  A
C1393      C3270   1.403       .  A
C1393      H1400   1.084       .  S
C1394      C3267   1.423       .  A
C1395      C3266   1.423       .  A
C1395      C1396   1.397   1_655  A
C1395     Br1402   1.906       .  S
C1396      C1397   1.396       .  A
C1396      H1401   1.084       .  S
C1397      C1398   1.418   1_455  A
C1398      C3265   1.403       .  A
C1398     Br3271   1.922       .  S
Br1399     C3270   1.922       .  S
C1403      C1404   1.412       .  A
C1403      H1410   1.081       .  S
C1404      C1405   1.417       .  A
C1405     Br1412   1.922       .  S
C1406      C1407   1.407       .  A
C1406      H1411   1.079       .  S
C1407      C1408   1.412       .  A
C1408     Br1409   1.918       .  S
C1413      C1414   1.403       .  A
C1413      C1418   1.404       .  A
C1413      H1420   1.077       .  S
C1414      C1415   1.412       .  A
C1415      C1416   1.404       .  A
C1416      C1417   1.408       .  A
C1417      C1418   1.423       .  A
C1418     Br1419   1.926       .  S
C1423      C1424   1.398       .  A
C1423      C1428   1.396       .  A
C1423      H1430   1.080       .  S
C1424      C1425   1.400       .  A
C1425      C1426   1.399       .  A
C1425     Br1432   1.917       .  S
C1426      C1427   1.416       .  A
C1426      H1431   1.078       .  S
C1427      C1428   1.422       .  A
C1428     Br1429   1.927       .  S
C1433      C1434   1.418       .  A
C1433      C3310   1.403   1_455  A
C1433      H1440   1.081       .  S
C1434      C3307   1.423   1_455  A
C1435      C3306   1.423       .  A
C1435      C1436   1.415       .  A
C1435     Br1442   1.921       .  S
C1436      C1437   1.409       .  A
C1436      H1441   1.072       .  S
C1437      C1438   1.406       .  A
C1438      C3305   1.403       .  A
C1438     Br3311   1.915       .  S
Br1439     C3310   1.915   1_455  S
C1443      C1444   1.410       .  A
C1443      C3320   1.384   1_455  A
C1443      H1450   1.080       .  S
C1444      C3317   1.425   1_455  A
C1445      C3316   1.425       .  A
C1445      C1446   1.409       .  A
C1445     Br1452   1.923       .  S
C1446      C1447   1.407       .  A
C1446      H1451   1.082       .  S
C1447      C1448   1.397       .  A
C1448      C3315   1.384       .  A
C1448     Br3321   1.914       .  S
Br1449     C3320   1.914       .  S
C1453      C1454   1.401       .  A
C1453      C1458   1.395       .  A
C1453      H1460   1.081       .  S
C1454      C1455   1.408       .  A
C1455      C1456   1.402       .  A
C1455     Br1462   1.917       .  S
C1456      C1457   1.412       .  A
C1456      H1461   1.083       .  S
C1457      C1458   1.419       .  A
C1458     Br1459   1.923       .  S
C1463      C1464   1.405       .  A
C1463      H1470   1.084       .  S
C1465      C1466   1.392       .  A
C1465     Br1472   1.918       .  S
C1466      C1467   1.405       .  A
C1466      H1471   1.083       .  S
C1467      C1468   1.412       .  A
C1473      C1478   1.411       .  A
C1473      H1480   1.082       .  S
C1474      C1475   1.399   1_565  A
C1475     Br1482   1.926       .  S
C1476      C1477   1.402       .  A
C1476      H1481   1.052       .  S
C1477      C1478   1.419       .  A
C1478     Br1479   1.918       .  S
C1483      C1484   1.408       .  A
C1483      C1488   1.411       .  A
C1483      H1490   1.082       .  S
C1484      C1485   1.406       .  A
C1485      C1486   1.388       .  A
C1485     Br1492   1.932       .  S
C1486      C1487   1.413       .  A
C1486      H1491   1.082       .  S
C1487      C1488   1.425       .  A
C1488     Br1489   1.924       .  S
C1493      C1494   1.416       .  A
C1493      C1498   1.413       .  A
C1493      H1500   1.080       .  S
C1494      C1495   1.414       .  A
C1495      C1496   1.403       .  A
C1495     Br1502   1.923       .  S
C1496      C1497   1.405       .  A
C1496      H1501   1.084       .  S
C1497      C1498   1.414       .  A
C1503      C1504   1.408       .  A
C1503      C1508   1.397       .  A
C1503      H1510   1.082       .  S
C1504      C1505   1.419       .  A
C1505      C1506   1.396       .  A
C1505     Br1512   1.919       .  S
C1506      C1507   1.400       .  A
C1506      H1511   1.084       .  S
C1507      C1508   1.408       .  A
C1508     Br1509   1.919       .  S
C1513      C1514   1.409   1_455  A
C1513      C1518   1.395       .  A
C1513      H1520   1.080       .  S
C1514      C3387   1.406   1_554  A
C1515      C3386   1.406   1_556  A
C1515      C1516   1.396       .  A
C1515     Br1522   1.917       .  S
C1516      C3389   1.405   1_556  A
C1516      H1521   1.084       .  S
C1517      C3388   1.405   1_554  A
C1517      C1518   1.400   1_655  A
C1518     Br1519   1.916       .  S
C1523      C3396   1.397       .  A
C1523      C1528   1.393       .  A
C1523      H1530   1.081       .  S
C1524      C3395   1.397       .  A
C1524      C1525   1.411   1_655  A
C1525      C1526   1.405       .  A
C1525     Br1532   1.918   1_556  S
C1526      C3399   1.409       .  A
C1526      H1531   1.083   1_556  S
C1527      C3398   1.409       .  A
C1527      C1528   1.413       .  A
C1528     Br1529   1.915       .  S
C1533      C1534   1.402       .  A
C1533      C1538   1.399       .  A
C1533      H1540   1.083       .  S
C1534      C1535   1.414       .  A
C1535      C1536   1.394       .  A
C1535     Br1542   1.922       .  S
C1536      C1537   1.402       .  A
C1536      H1541   1.083       .  S
C1537      C1538   1.418       .  A
C1538     Br3411   1.921   1_455  S
Br1539     C3410   1.921       .  S
C1543      C1544   1.408       .  A
C1543      C1548   1.405       .  A
C1543      H1550   1.080       .  S
C1544      C1545   1.409       .  A
C1545      C1546   1.386       .  A
C1545     Br1552   1.917       .  S
C1546      C1547   1.401       .  A
C1546      H1551   1.075       .  S
C1547      C1548   1.417       .  A
C1548     Br1549   1.910   1_455  S
C1553      C1554   1.410       .  A
C1553      C1558   1.406       .  A
C1553      H1560   1.083       .  S
C1554      C1555   1.414   1_556  A
C1555      C1556   1.394       .  A
C1555     Br1562   1.911       .  S
C1556      C1557   1.399   1_554  A
C1556      H1561   1.084       .  S
C1557      C1558   1.410       .  A
C1558     Br1559   1.917       .  S
C1563      C1564   1.404   1_554  A
C1563      C1568   1.395       .  A
C1563      H1570   1.084       .  S
C1564      C1565   1.410       .  A
C1565      C1566   1.392       .  A
C1565     Br1572   1.938       .  S
C1566      C1567   1.402   1_556  A
C1566      H1571   1.078       .  S
C1567      C1568   1.408       .  A
C1568     Br1569   1.920       .  S
C1573      C1574   1.423       .  A
C1573      C1578   1.416       .  A
C1573      H1580   1.076       .  S
C1574      C1575   1.413       .  A
C1575      C1576   1.385       .  A
C1575     Br1582   1.922       .  S
C1576      C1577   1.398       .  A
C1576      H1581   1.085       .  S
C1577      C1578   1.409       .  A
C1578     Br1579   1.914       .  S
C1583      C1584   1.407       .  A
C1583      C1588   1.398       .  A
C1583      H1590   1.081       .  S
C1584      C1585   1.411       .  A
C1585      C1586   1.400       .  A
C1585     Br1592   1.922       .  S
C1586      C1587   1.414       .  A
C1586      H1591   1.083       .  S
C1587      C1588   1.414       .  A
C1588     Br1589   1.926       .  S
C1593      C1594   1.409       .  A
C1593      C1598   1.401       .  A
C1593      H1600   1.083       .  S
C1595      C1596   1.396       .  A
C1595     Br1602   1.919       .  S
C1596      H1601   1.084       .  S
C1597      C1598   1.404       .  A
C1598     Br1599   1.916       .  S
C1603      C1604   1.402   1_556  A
C1603      C1608   1.392   1_556  A
C1603      H1610   1.083       .  S
C1605      C1606   1.401       .  A
C1605     Br1612   1.914       .  S
C1606      H1611   1.083       .  S
C1607      C1608   1.408       .  A
C1608     Br1609   1.925   1_554  S
C1613      C1614   1.408       .  A
C1613      C1618   1.401       .  A
C1613      H1620   1.077   1_565  S
C1614      C1615   1.410       .  A
C1615      C1616   1.401       .  A
C1616      C1617   1.412       .  A
C1616      H1621   1.082       .  S
C1617      C1618   1.412       .  A
C1618     Br1619   1.922       .  S
C1623      C1624   1.401       .  A
C1623      C1628   1.389       .  A
C1623      H1630   1.082       .  S
C1624      C1625   1.412       .  A
C1625      C1626   1.407       .  A
C1626      C1627   1.408       .  A
C1626      H1631   1.083       .  S
C1627      C1628   1.413       .  A
C1628     Br1629   1.922       .  S
C1633      C1634   1.412       .  A
C1633      C1638   1.387       .  A
C1633      H1640   1.079       .  S
C1634      C1635   1.429       .  A
C1635      C1636   1.399       .  A
C1635     Br3514   1.925       .  S
C1636      C1637   1.397       .  A
C1636      H3513   1.083       .  S
C1637      C1638   1.397       .  A
C1638     Br1639   1.918       .  S
H1641      C3508   1.083   1_455  S
Br1642     C3507   1.925       .  S
C1643      C1644   1.392       .  A
C1643      C1648   1.383       .  A
C1643      H1650   1.069       .  S
C1644      C1645   1.419       .  A
C1645      C1646   1.420       .  A
C1645     Br1652   1.907       .  S
C1646      C1647   1.411       .  A
C1646      H1651   1.082       .  S
C1647      C1648   1.413       .  A
C1648     Br1649   1.930       .  S
C1653      C1654   1.403       .  A
C1653      H1660   1.082       .  S
C1654      C1655   1.416   1_565  A
C1655     Br1662   1.918       .  S
C1656      C1657   1.411       .  A
C1656      H1661   1.083       .  S
C1657      C1658   1.417       .  A
C1658     Br1659   1.912       .  S
C1663      C1664   1.405       .  A
C1663      C1668   1.404       .  A
C1663      H1670   1.083       .  S
C1664      C1665   1.407       .  A
C1665      C1666   1.394       .  A
C1665     Br1672   1.924       .  S
C1666      C1667   1.405       .  A
C1666      H1671   1.077       .  S
C1667      C1668   1.409       .  A
C1668     Br1669   1.914       .  S
C1673      C1674   1.416       .  A
C1673      C1678   1.415       .  A
C1673      H1680   1.083       .  S
C1674      C1675   1.408       .  A
C1675      C1676   1.396       .  A
C1675     Br1682   1.920       .  S
C1676      C1677   1.407       .  A
C1676      H1681   1.078       .  S
C1677      C1678   1.417       .  A
C1683      C1684   1.403       .  A
C1683      C1688   1.389       .  A
C1683      H1690   1.083       .  S
C1684      C1685   1.414       .  A
C1685      C1686   1.414       .  A
C1685     Br1692   1.915       .  S
C1686      C1687   1.414       .  A
C1686      H1691   1.082       .  S
C1687      C1688   1.417       .  A
C1688     Br1689   1.930       .  S
C1693      C1694   1.393       .  A
C1693      C1698   1.394       .  A
C1693      H1700   1.084       .  S
C1694      C1695   1.405       .  A
C1695      C1696   1.404       .  A
C1695     Br1702   1.918       .  S
C1696      C1697   1.416       .  A
C1696      H1701   1.079       .  S
C1697      C1698   1.430       .  A
C1698     Br1699   1.922       .  S
C1703      C1704   1.401       .  A
C1703      H1710   1.084       .  S
C1705      C1706   1.399       .  A
C1705     Br1712   1.910       .  S
C1706      C1707   1.403       .  A
C1706      H1711   1.083       .  S
C1707      C1708   1.412       .  A
C1708     Br1709   1.915       .  S
C1713      C1714   1.410       .  A
C1713      C1718   1.400       .  A
C1713      H1720   1.083       .  S
C1714      C1715   1.417       .  A
C1715      C3588   1.393       .  A
C1715     Br1722   1.919       .  S
C1716      C3587   1.393   1_455  A
C1716      C1717   1.399       .  A
C1716      H1721   1.078       .  S
C1717      C3590   1.406   1_455  A
C1718      C3589   1.406       .  A
C1718     Br1719   1.914       .  S
C1723      C1724   1.410       .  A
C1723      C1728   1.413       .  A
C1723      H1730   1.083       .  S
C1724      C1725   1.414       .  A
C1725      C1726   1.402       .  A
C1725     Br1732   1.918       .  S
C1726      C1727   1.411       .  A
C1726      H1731   1.083       .  S
C1727      C1728   1.421       .  A
C1728     Br3601   1.921   1_455  S
Br1729     C3600   1.921       .  S
C1733      C1734   1.393       .  A
C1733      C1738   1.394       .  A
C1733      H1740   1.075       .  S
C1734      C1735   1.403       .  A
C1735      C1736   1.404       .  A
C1735     Br1742   1.911       .  S
C1736      C1737   1.416       .  A
C1736      H1741   1.080       .  S
C1737      C1738   1.425       .  A
C1738     Br1739   1.914       .  S
C1743      C1744   1.405       .  A
C1743      C1748   1.393       .  A
C1743      H1750   1.046       .  S
C1744      C1745   1.413       .  A
C1745      C3618   1.405       .  A
C1745     Br3624   1.919       .  S
C1746      C3617   1.405       .  A
C1746      C1747   1.407       .  A
C1746      H1751   1.079       .  S
C1747      C3620   1.405       .  A
C1748      C3619   1.405   1_455  A
C1748     Br1749   1.923       .  S
Br1752     C3617   1.919       .  S
C1753      C1754   1.407       .  A
C1753      C1758   1.412       .  A
C1753      H3632   1.082       .  S
C1754      C1755   1.404       .  A
C1755      C1756   1.392       .  A
C1755     Br1762   1.913       .  S
C1756      C1757   1.411       .  A
C1756      H1761   1.084       .  S
C1757      C1758   1.428       .  A
C1758     Br1759   1.916       .  S
H1760      C3625   1.082   1_455  S
C1763      C1764   1.402       .  A
C1763      C1768   1.403       .  A
C1763      H1770   1.072       .  S
C1764      C1765   1.406       .  A
C1765      C1766   1.399       .  A
C1765     Br1772   1.920   1_554  S
C1766      C1767   1.415       .  A
C1766      H1771   1.082       .  S
C1767      C1768   1.418       .  A
C1768     Br1769   1.922       .  S
C1773      C1774   1.405       .  A
C1773      C1778   1.392       .  A
C1773      H1780   1.074       .  S
C1774      C1775   1.414       .  A
C1775     Br1782   1.917       .  S
C1776      C1777   1.411       .  A
C1776      H1781   1.082       .  S
C1778     Br1779   1.925       .  S
C1783      C1784   1.407       .  A
C1783      C1788   1.401       .  A
C1783      H1790   1.081       .  S
C1784      C1785   1.413       .  A
C1785      C1786   1.398       .  A
C1785     Br1792   1.918       .  S
C1786      C1787   1.409       .  A
C1786      H1791   1.081       .  S
C1787      C1788   1.418       .  A
C1788     Br1789   1.924       .  S
C1793      C1794   1.398       .  A
C1793      C1798   1.398       .  A
C1793      H1800   1.083       .  S
C1794      C1795   1.415       .  A
C1795      C1796   1.409       .  A
C1796      C1797   1.412       .  A
C1796      H1801   1.081       .  S
C1797      C1798   1.425       .  A
C1798     Br1799   1.927       .  S
C1803      C1804   1.412       .  A
C1803      H1810   1.083       .  S
C1805      C1806   1.407   1_545  A
C1805     Br1812   1.919       .  S
C1806      C1807   1.407       .  A
C1806      H1811   1.082       .  S
C1807      C1808   1.412       .  A
C1808     Br1809   1.927       .  S
C1813      C1814   1.404       .  A
C1813      C1818   1.393       .  A
C1813      H1820   1.083       .  S
C1814      C1815   1.405       .  A
C1815      C1816   1.395       .  A
C1815     Br1822   1.914       .  S
C1816      C1817   1.409       .  A
C1816      H1821   1.083       .  S
C1817      C1818   1.413       .  A
C1818     Br1819   1.922       .  S
C1823      C1824   1.402       .  A
C1823      C3700   1.398       .  A
C1823      H1830   1.083       .  S
C1824      C1825   1.397       .  A
C1825      C1826   1.389       .  A
C1825     Br1832   1.924       .  S
C1826      C3699   1.413       .  A
C1826      H1831   1.063       .  S
C1827      C3698   1.413       .  A
C1827      C1828   1.414       .  A
C1828      C3695   1.398       .  A
C1828     Br1829   1.895       .  S
C1833      C1834   1.416       .  A
C1833      C1838   1.411       .  A
C1833      H1840   1.078       .  S
C1834      C1835   1.410       .  A
C1835      C1836   1.398       .  A
C1835     Br1842   1.922       .  S
C1836      C1837   1.403       .  A
C1836      H1841   1.084       .  S
C1837      C1838   1.416       .  A
C1838     Br3711   1.922   1_455  S
Br1839     C3710   1.922       .  S
C1843      C1844   1.408       .  A
C1843      C1848   1.400       .  A
C1843      H1850   1.083       .  S
C1844      C1845   1.421       .  A
C1845      C1846   1.408       .  A
C1845     Br1852   1.922       .  S
C1846      C1847   1.413       .  A
C1846      H1851   1.081       .  S
C1847      C1848   1.416       .  A
C1848     Br1849   1.901       .  S
C1853      C1854   1.408       .  A
C1853      C3730   1.393       .  A
C1853      H1860   1.083       .  S
C1854      C3727   1.417       .  A
C1855      C3726   1.417   1_455  A
C1855      C1856   1.408       .  A
C1855     Br1862   1.919       .  S
C1856      C1857   1.409       .  A
C1856      H1861   1.083       .  S
C1857      C1858   1.415       .  A
C1858      C3725   1.393   1_455  A
C1858     Br3731   1.921       .  S
Br1859     C3730   1.921       .  S
C1863      C1864   1.413       .  A
C1863      C1868   1.408       .  A
C1863      H1870   1.082       .  S
C1864      C1865   1.412       .  A
C1865      C1866   1.397       .  A
C1865     Br1872   1.914       .  S
C1866      C1867   1.411       .  A
C1866      H1871   1.083       .  S
C1867      C1868   1.416       .  A
C1868     Br1869   1.924       .  S
C1873      C1874   1.419       .  A
C1873      C1878   1.432       .  A
C1873      C2750   1.490       .  S
C1874      C1875   1.414       .  A
C1874      C2800   1.520       .  S
C1875      C1876   1.442       .  A
C1875      C2793   1.494       .  S
C1876      C1877   1.458       .  A
C1876      C2763   1.548       .  S
C1877      C1878   1.448       .  A
C1877      C2770   1.543       .  S
C1878      C2783   1.522       .  S
C1879      C1880   1.403       .  A
C1879      C1884   1.423       .  A
C1879      C2803   1.513       .  S
C1880      C1881   1.405       .  A
C1880      H1899   1.084       .  S
C1881      C1882   1.426       .  A
C1881      C2740   1.509       .  S
C1882      C1883   1.420       .  A
C1882      C1889   1.406       .  A
C1883      C1884   1.425       .  A
C1883      C1888   1.428       .  A
C1884      C1885   1.400       .  A
C1885      C1886   1.390       .  A
C1885      H1895   1.078       .  S
C1886      C1887   1.407       .  A
C1886      H1896   1.080       .  S
C1887      C1888   1.422       .  A
C1887      C1894   1.420       .  A
C1888      C1891   1.427       .  A
C1889      C1890   1.401       .  A
C1889      H1897   1.082       .  S
C1890      C1891   1.409       .  A
C1890      H1898   1.079       .  S
C1891      C1892   1.434       .  A
C1892      C1893   1.405       .  A
C1892      C2733   1.523       .  S
C1893      C1894   1.401       .  A
C1893      H1900   1.075       .  S
C1894      C2723   1.510       .  S
C1901      C1902   1.397       .  A
C1901      C1906   1.420       .  A
C1901      C2790   1.502       .  S
C1902      C1903   1.401       .  A
C1902      H1921   1.080       .  S
C1903      C1904   1.417       .  A
C1903      C2713   1.502       .  S
C1904      C1905   1.424       .  A
C1904      C1911   1.403       .  A
C1905      C1906   1.422       .  A
C1905      C1910   1.423       .  A
C1906      C1907   1.406       .  A
C1907      C1908   1.397       .  A
C1907      H1917   1.082       .  S
C1908      C1909   1.403       .  A
C1908      H1918   1.082       .  S
C1909      C1910   1.428       .  A
C1909      C1916   1.423       .  A
C1910      C1913   1.425       .  A
C1911      C1912   1.395       .  A
C1911      H1919   1.083       .  S
C1912      C1913   1.406       .  A
C1912      H1920   1.083       .  S
C1913      C1914   1.417       .  A
C1914      C1915   1.396       .  A
C1914      C2703   1.513       .  S
C1915      C1916   1.412       .  A
C1915      H1922   1.076       .  S
C1916      C2693   1.523       .  S
C1923      C1924   1.424       .  A
C1923      C1928   1.425       .  A
C1923      C2640   1.496       .  S
C1924      C1925   1.428       .  A
C1924      C2743   1.502       .  S
C1925      C1926   1.437       .  A
C1925      C2680   1.517       .  S
C1926      C1927   1.424       .  A
C1926      C2653   1.498       .  S
C1927      C1928   1.424       .  A
C1927      C2660   1.515       .  S
C1928      C2670   1.494       .  S
C1929      C1930   1.436       .  A
C1929      C1934   1.444       .  A
C1929      C2590   1.512       .  S
C1930      C1931   1.424       .  A
C1930      C2710   1.511       .  S
C1931      C1932   1.413       .  A
C1931      C2630   1.494       .  S
C1932      C1933   1.426       .  A
C1932      C2603   1.505       .  S
C1933      C1934   1.435       .  A
C1933      C2620   1.513       .  S
C1934      C2610   1.516       .  S
C1935      C1936   1.409       .  A
C1935      C1940   1.437       .  A
C1935      C2633   1.522       .  S
C1936      C1937   1.399       .  A
C1936      H1955   1.078       .  S
C1937      C1938   1.400       .  A
C1937      C2683   1.491       .  S
C1938      C1939   1.421       .  A
C1938      C1945   1.402       .  A
C1939      C1940   1.424       .  A
C1939      C1944   1.417       .  A
C1940      C1941   1.413       .  A
C1941      C1942   1.404       .  A
C1941      H1951   1.080       .  S
C1942      C1943   1.403       .  A
C1942      H1952   1.081       .  S
C1943      C1944   1.426       .  A
C1943      C1950   1.424       .  A
C1944      C1947   1.421       .  A
C1945      C1946   1.384       .  A
C1945      H1953   1.075       .  S
C1946      C1947   1.400       .  A
C1946      H1954   1.083       .  S
C1947      C1948   1.404       .  A
C1948      C1949   1.396       .  A
C1948      C2570   1.508       .  S
C1949      C1950   1.400       .  A
C1949      H1956   1.077       .  S
C1950      C2583   1.507       .  S
C1957      C1958   1.424   1_565  A
C1957      C2898   1.423   1_554  A
C1957      C2530   1.499   1_554  S
C1958      C1959   1.423       .  A
C1958      C2700   1.503       .  S
C1959      C1960   1.429   1_545  A
C1959      C2730   1.505       .  S
C1960      C2897   1.427   1_554  A
C1960      C2540   1.491       .  S
C1961      C2896   1.427   1_556  A
C1961      C1962   1.422       .  A
C1961      C2550   1.509       .  S
C1962      C2893   1.423   1_556  A
C1962      C2560   1.500       .  S
C1963      C1964   1.438   1_556  A
C1963      C1968   1.445       .  A
C1963      C2500   1.477       .  S
C1964      C1965   1.413       .  A
C1964      C2580   1.521       .  S
C1965      C1966   1.424   1_554  A
C1965      C2720   1.510       .  S
C1966      C1967   1.437       .  A
C1966      C2493   1.499       .  S
C1967      C1968   1.444       .  A
C1967      C2520   1.501       .  S
C1968      C2510   1.567       .  S
C1969      C1974   1.434       .  A
C1969      C2450   1.492   1_556  S
C1970      C1971   1.414       .  A
C1970      C2690   1.507       .  S
C1971      C2573   1.482       .  S
C1972      C1973   1.423       .  A
C1972      C2460   1.496       .  S
C1973      C1974   1.430       .  A
C1973      C2473   1.500       .  S
C1974      C2483   1.510       .  S
C1975      C1976   1.448       .  A
C1975      C1980   1.439       .  A
C1975      C2400   1.489       .  S
C1976      C1977   1.439       .  A
C1976      C2430   1.557       .  S
C1977      C1978   1.427       .  A
C1977      C2443   1.482       .  S
C1978      C1979   1.410       .  A
C1978      C2390   1.503       .  S
C1979      C1980   1.421       .  A
C1979      C2420   1.502       .  S
C1980      C2413   1.522       .  S
C1981      C1982   1.399       .  A
C1981      C1986   1.424       .  A
C1981      C2523   1.507       .  S
C1982      C1983   1.401       .  A
C1982      H2001   1.084       .  S
C1983      C1984   1.419       .  A
C1983      C2480   1.501       .  S
C1984      C1985   1.425       .  A
C1984      C1991   1.404       .  A
C1985      C1986   1.424       .  A
C1985      C1990   1.428       .  A
C1986      C1987   1.405       .  A
C1987      C1988   1.390       .  A
C1987      H1997   1.079       .  S
C1988      C1989   1.400       .  A
C1988      H1998   1.080       .  S
C1989      C1990   1.427       .  A
C1989      C1996   1.422       .  A
C1990      C1993   1.423       .  A
C1991      C1992   1.385       .  A
C1991      H1999   1.072       .  S
C1992      C1993   1.399       .  A
C1992      H2000   1.080       .  S
C1993      C1994   1.415       .  A
C1994      C1995   1.401       .  A
C1994      C2380   1.513       .  S
C1995      C1996   1.404       .  A
C1995      H2002   1.075       .  S
C1996      C2423   1.520       .  S
C2003      C2004   1.400       .  A
C2003      C2008   1.422       .  A
C2003      C2470   1.490       .  S
C2004      C2005   1.395       .  A
C2004      H2023   1.085       .  S
C2005      C2006   1.423       .  A
C2005      C2553   1.508       .  S
C2006      C2007   1.428       .  A
C2006      C2013   1.402       .  A
C2007      C2008   1.419       .  A
C2007      C2012   1.426       .  A
C2008      C2009   1.409       .  A
C2009      C2010   1.401       .  A
C2009      H2019   1.081       .  S
C2010      C2011   1.404       .  A
C2010      H2020   1.080       .  S
C2011      C2012   1.432       .  A
C2011      C2018   1.434       .  A
C2012      C2015   1.419       .  A
C2013      C2014   1.390       .  A
C2013      H2021   1.081       .  S
C2014      C2015   1.406       .  A
C2014      H2022   1.080       .  S
C2015      C2016   1.407       .  A
C2016      C2017   1.405       .  A
C2016      C2410   1.490       .  S
C2017      C2018   1.405       .  A
C2017      H2024   1.081       .  S
C2018      C2370   1.533       .  S
C2025      C2026   1.433       .  A
C2025      C2030   1.427       .  A
C2025      C2330   1.513       .  S
C2026      C2027   1.423       .  A
C2026      C2383   1.499       .  S
C2027      C2028   1.431       .  A
C2027      C2343   1.518       .  S
C2028      C2029   1.425       .  A
C2028      C2323   1.487       .  S
C2029      C2030   1.423       .  A
C2029      C2350   1.515       .  S
C2030      C2360   1.488       .  S
C2031      C2032   1.428       .  A
C2031      C2036   1.440       .  A
C2031      C2273   1.495       .  S
C2032      C2033   1.418       .  A
C2032      C2373   1.525       .  S
C2033      C2034   1.434       .  A
C2033      C2290   1.504       .  S
C2034      C2035   1.434       .  A
C2034      C2283   1.490       .  S
C2035      C2036   1.432       .  A
C2035      C2300   1.527       .  S
C2036      C2310   1.517       .  S
C2037      C2038   1.403       .  A
C2037      C2042   1.426       .  A
C2037      C2563   1.495       .  S
C2038      C2039   1.393       .  A
C2038      H2057   1.085       .  S
C2039      C2040   1.413       .  A
C2039      C2513   1.483       .  S
C2040      C2041   1.419       .  A
C2040      C2047   1.402       .  A
C2041      C2042   1.424       .  A
C2041      C2046   1.428       .  A
C2042      C2043   1.407       .  A
C2043      C2044   1.397       .  A
C2043      H2053   1.081       .  S
C2044      C2045   1.407       .  A
C2044      H2054   1.082       .  S
C2045      C2046   1.425       .  A
C2045      C2052   1.422       .  A
C2046      C2049   1.430       .  A
C2047      C2048   1.392       .  A
C2047      H2055   1.082       .  S
C2048      C2049   1.406       .  A
C2048      H2056   1.078       .  S
C2049      C2050   1.424       .  A
C2050      C2051   1.406       .  A
C2050      C2293   1.520       .  S
C2051      C2052   1.406       .  A
C2051      H2058   1.078       .  S
C2052      C2340   1.516       .  S
C2059      C2060   1.403       .  A
C2059      C2064   1.409       .  A
C2059      C2773   1.496       .  S
C2060      C2061   1.415       .  A
C2060      H2079   1.083       .  S
C2061      C2062   1.433       .  A
C2061      C2663   1.523       .  S
C2062      C2063   1.426       .  A
C2062      C2069   1.407       .  A
C2063      C2064   1.420       .  A
C2064      C2065   1.400       .  A
C2065      H2075   1.076       .  S
C2066      C2067   1.400       .  A
C2066      H2076   1.078       .  S
C2067      C2068   1.430       .  A
C2067      C2074   1.421       .  A
C2068      C2071   1.423       .  A
C2069      H2077   1.081       .  S
C2070      C2071   1.407       .  A
C2070      H2078   1.082       .  S
C2071      C2072   1.423       .  A
C2072      C2073   1.398       .  A
C2072      C2313   1.507       .  S
C2073      C2074   1.397       .  A
C2073      H2080   1.075       .  S
C2074      C2363   1.517       .  S
C2081      C2082   1.401       .  A
C2081      C2086   1.419       .  A
C2081      C2780   1.520       .  S
C2082      C2083   1.404       .  A
C2082      H2101   1.080       .  S
C2083      C2084   1.428       .  A
C2083      C2623   1.511       .  S
C2084      C2085   1.424       .  A
C2084      C2091   1.409       .  A
C2085      C2086   1.429       .  A
C2085      C2090   1.431       .  A
C2086      C2087   1.397       .  A
C2087      C2088   1.386       .  A
C2087      H2097   1.081       .  S
C2088      C2089   1.408       .  A
C2088      H2098   1.075       .  S
C2089      C2090   1.421       .  A
C2089      C2096   1.421       .  A
C2090      C2093   1.428       .  A
C2091      C2092   1.402       .  A
C2091      H2099   1.080       .  S
C2092      C2093   1.407       .  A
C2092      H2100   1.082       .  S
C2093      C2094   1.435       .  A
C2094      C2095   1.406       .  A
C2094      C2303   1.523       .  S
C2095      C2096   1.402       .  A
C2095      H2102   1.084       .  S
C2096      C2440   1.501       .  S
C2103      C2104   1.405       .  A
C2103      C2108   1.430       .  A
C2103      C2673   1.525       .  S
C2104      C2105   1.408       .  A
C2104      H2123   1.080       .  S
C2105      C2106   1.426       .  A
C2105      C2613   1.516       .  S
C2106      C2107   1.425       .  A
C2106      C2113   1.403       .  A
C2107      C2108   1.427       .  A
C2107      C3048   1.435       .  A
C2108      C2109   1.404       .  A
C2109      C3046   1.386       .  A
C2109      H2119   1.077       .  S
C2110      C3045   1.386       .  A
C2110      C2111   1.399   1_565  A
C2110      H2120   1.078       .  S
C2111      C2112   1.424       .  A
C2111      C2118   1.415       .  A
C2112      C3043   1.435   1_545  A
C2112      C2115   1.427       .  A
C2113      C3050   1.399       .  A
C2113      H2121   1.079       .  S
C2114      C3049   1.399   1_545  A
C2114      C2115   1.411       .  A
C2114      H2122   1.078       .  S
C2115      C2116   1.437       .  A
C2116      C2117   1.408       .  A
C2116      C2353   1.519       .  S
C2117      C2118   1.398       .  A
C2117      H2124   1.081       .  S
C2118      C2433   1.503       .  S
O2125      C2160   1.235       .  S
O2125     Mg2133   2.156   1_554  S
C2126      H2165   1.081       .  S
C2126      O2139   1.234       .  S
C2126      O2163   1.269       .  A
Mg2127     O2156   2.158   1_554  S
Mg2127     O2171   2.272   1_554  S
Mg2127     O2167   2.247       .  S
Mg2127     O2138   2.300       .  S
O2128      C2149   1.235       .  S
O2128     Mg2170   2.163   1_554  S
O2128     Mg2153   2.161       .  S
O2129      C3096   1.271       .  A
O2129     Mg2153   2.306   1_565  S
C2130      C2533   1.472       .  S
C2130      O3068   1.267       .  A
C2130      O2144   1.271   1_565  A
O2131     Mg2133   2.300       .  S
O2132      C3066   1.267       .  A
O2132     Mg2164   2.249       .  S
Mg2133     O3075   2.169       .  S
Mg2133     O2147   2.293       .  S
Mg2133     O2135   2.279   1_556  S
C2134      C2453   1.466       .  S
C2134      O2140   1.277       .  A
O2135      C3078   1.270       .  A
H2136      C2149   1.081       .  S
C2137      H2162   1.081       .  S
C2137      O2151   1.235       .  S
C2137      O3088   1.271       .  A
O2138      C2161   1.268       .  A
O2139     Mg3069   2.169   1_545  S
O2139     Mg2153   2.151   1_556  S
O2140     Mg2170   2.321   1_554  S
C2141      C2490   1.492       .  S
C2141      O2154   1.274       .  A
C2141      O2146   1.277   1_556  A
C2142      C2543   1.471       .  S
C2142      O3071   1.270   1_545  A
C2142      O2169   1.272       .  A
Mg2143     O3086   2.129   1_545  S
Mg2143     O2151   2.151   1_554  S
Mg2143     O2144   2.312   1_554  S
Mg2143     O2145   2.308       .  S
Mg2143     O2172   2.209       .  S
O2146     Mg2153   2.324       .  S
O2148      C2168   1.268       .  A
O2148     Mg2164   2.270   1_554  S
O2150      C2161   1.233       .  S
O2150     Mg3079   2.129       .  S
O2150     Mg2164   2.137   1_554  S
O2152      C3073   1.271       .  A
O2152     Mg2164   2.306       .  S
Mg2153     O2169   2.264       .  S
O2154     Mg2170   2.273       .  S
H2155      C2160   1.081       .  S
O2156      C2159   1.235       .  S
O2156     Mg2164   2.149       .  S
H2157      C2159   1.081       .  S
H2158      C2161   1.081       .  S
C2160      O3065   1.271       .  A
O2163     Mg2170   2.303       .  S
C2166      C2463   1.488       .  S
C2166      O2171   1.270   1_455  A
O2167      C2168   1.269       .  A
C2168      C2503   1.467       .  S
O2173      C2208   1.235       .  S
O2173     Mg2175   2.157       .  S
O2173     Mg2181   2.157       .  S
C2174      H2213   1.081       .  S
C2174      O2187   1.237       .  S
C2174      O2211   1.274       .  A
Mg2175     O2204   2.146       .  S
Mg2175     O2219   2.325       .  S
Mg2175     O2215   2.273       .  S
Mg2175     O2186   2.312       .  S
O2176      C2197   1.234       .  S
O2176     Mg2218   2.127       .  S
O2176     Mg2201   2.097       .  S
O2177      C2208   1.271       .  A
O2177     Mg2201   2.313       .  S
C2178      C2753   1.478       .  S
C2178      O2180   1.270       .  A
C2178      O2192   1.270       .  A
O2179      C2207   1.268       .  A
O2179     Mg2181   2.306       .  S
O2180     Mg2212   2.262       .  S
Mg2181     O2187   2.178       .  S
Mg2181     O2195   2.294       .  S
Mg2181     O2183   2.288       .  S
C2182      C2600   1.472       .  S
C2182      O2220   1.273       .  A
C2182      O2188   1.265       .  A
O2183      C2190   1.273       .  A
H2184      C2197   1.081       .  S
C2185      H2210   1.081       .  S
C2185      O2199   1.234       .  S
C2185      O2200   1.268       .  A
O2186      C2209   1.271       .  A
O2187     Mg2201   2.162       .  S
O2188     Mg2218   2.272       .  S
C2189      C2650   1.489       .  S
C2189      O2202   1.266       .  A
C2189      O2194   1.266       .  A
C2190      C2760   1.464       .  S
C2190      O2217   1.257       .  A
Mg2191     O2198   2.171       .  S
Mg2191     O2199   2.139       .  S
Mg2191     O2192   2.258       .  S
Mg2191     O2193   2.300       .  S
Mg2191     O2220   2.292       .  S
O2193      C2197   1.268       .  A
O2194     Mg2201   2.282       .  S
O2195      C2214   1.274       .  A
O2196      C2216   1.274       .  A
O2196     Mg2212   2.295       .  S
O2198      C2209   1.235       .  S
O2198     Mg2212   2.168       .  S
O2199     Mg2218   2.132       .  S
O2200     Mg2212   2.295       .  S
Mg2201     O2217   2.169       .  S
O2202     Mg2218   2.254       .  S
H2203      C2208   1.081       .  S
O2204      C2207   1.232       .  S
O2204     Mg2212   2.157       .  S
H2205      C2207   1.081       .  S
H2206      C2209   1.081       .  S
O2211     Mg2218   2.320       .  S
C2214      C2593   1.505       .  S
C2214      O2219   1.276       .  A
O2215      C2216   1.272       .  A
C2216      C2643   1.481       .  S
O2221      C2256   1.235       .  S
O2221     Mg2223   2.129       .  S
O2221     Mg2229   2.153       .  S
C2222      H2261   1.081       .  S
C2222      O2235   1.234       .  S
C2222      O2259   1.267       .  A
Mg2223     O2252   2.154       .  S
Mg2223     O2267   2.283       .  S
Mg2223     O2263   2.244       .  S
Mg2223     O2234   2.307       .  S
O2224      C2245   1.235       .  S
O2224     Mg2266   2.164       .  S
O2224     Mg2249   2.150       .  S
O2225      C2256   1.270       .  A
O2225     Mg2249   2.302       .  S
C2226      C2280   1.483       .  S
C2226      O2228   1.269       .  A
C2226      O2240   1.274       .  A
O2227      C2255   1.269       .  A
O2227     Mg2229   2.296       .  S
O2228     Mg2260   2.236       .  S
Mg2229     O2235   2.125       .  S
Mg2229     O2243   2.233       .  S
Mg2229     O2231   2.271       .  S
C2230      C2393   1.494       .  S
C2230      O2268   1.273       .  A
C2230      O2236   1.273       .  A
O2231      C2238   1.269       .  A
H2232      C2245   1.081       .  S
C2233      H2258   1.081       .  S
C2233      O2247   1.234       .  S
C2233      O2248   1.270       .  A
O2234      C2257   1.270       .  A
O2235     Mg2249   2.146       .  S
O2236     Mg2266   2.298       .  S
C2237      C2333   1.488       .  S
C2237      O2250   1.276       .  A
C2237      O2242   1.268       .  A
C2238      C2270   1.464       .  S
C2238      O2265   1.268       .  A
Mg2239     O2246   2.166       .  S
Mg2239     O2247   2.146       .  S
Mg2239     O2240   2.308       .  S
Mg2239     O2241   2.310       .  S
Mg2239     O2268   2.274       .  S
O2241      C2245   1.271       .  A
O2242     Mg2249   2.273       .  S
O2243      C2262   1.268       .  A
O2244      C2264   1.276       .  A
O2244     Mg2260   2.319       .  S
O2246      C2257   1.234       .  S
O2246     Mg2260   2.162       .  S
O2247     Mg2266   2.166       .  S
O2248     Mg2260   2.309       .  S
Mg2249     O2265   2.254       .  S
O2250     Mg2266   2.294       .  S
H2251      C2256   1.081       .  S
O2252      C2255   1.236       .  S
O2252     Mg2260   2.139       .  S
H2253      C2255   1.081       .  S
H2254      C2257   1.081       .  S
O2259     Mg2266   2.287       .  S
C2262      C2403   1.476       .  S
C2262      O2267   1.271       .  A
O2263      C2264   1.267       .  A
C2264      C2320   1.493       .  S
C2269      C2270   1.402       .  A
C2269      C2274   1.392       .  A
C2269      H2276   1.084       .  S
C2270      C2271   1.402       .  A
C2271     Br2278   1.917       .  S
C2272      C2273   1.411       .  A
C2272      H2277   1.084       .  S
C2274     Br2275   1.918       .  S
C2279      C2280   1.405       .  A
C2279      C2284   1.396       .  A
C2279      H2286   1.083       .  S
C2280      C2281   1.416       .  A
C2281      C2282   1.398       .  A
C2281     Br2288   1.922       .  S
C2282      C2283   1.400       .  A
C2282      H2287   1.084       .  S
C2283      C2284   1.415       .  A
C2284     Br2285   1.930       .  S
C2289      C2290   1.393       .  A
C2289      C2294   1.393       .  A
C2289      H2296   1.074       .  S
C2290      C2291   1.417       .  A
C2291      C2292   1.415       .  A
C2291     Br2298   1.918       .  S
C2292      C2293   1.414       .  A
C2292      H2297   1.082       .  S
C2293      C2294   1.410       .  A
C2294     Br2295   1.904       .  S
C2299      C2300   1.410       .  A
C2299      C2304   1.405       .  A
C2299      H2306   1.070       .  S
C2300      C2301   1.410       .  A
C2301      C2302   1.409       .  A
C2301     Br2308   1.917       .  S
C2302      C2303   1.418       .  A
C2302      H2307   1.079       .  S
C2303      C2304   1.412       .  A
C2304     Br2305   1.923       .  S
C2309      C2310   1.406       .  A
C2309      C2314   1.394       .  A
C2309      H2316   1.081       .  S
C2310      C2311   1.421       .  A
C2311      C2312   1.410       .  A
C2311     Br2318   1.916       .  S
C2312      C2313   1.408       .  A
C2312      H2317   1.082       .  S
C2313      C2314   1.415       .  A
C2319      C2320   1.411       .  A
C2319      C2324   1.401       .  A
C2319      H2326   1.081       .  S
C2320      C2321   1.419       .  A
C2321      C3258   1.397       .  A
C2321     Br3264   1.923       .  S
C2322      C3257   1.397       .  A
C2322      C2323   1.399       .  A
C2322      H2327   1.083       .  S
C2323      C3260   1.403   1_545  A
C2324      C3259   1.403       .  A
C2324     Br2325   1.922       .  S
Br2328     C3257   1.923       .  S
C2329      C2330   1.404       .  A
C2329      H2336   1.084       .  S
C2331      C2332   1.397       .  A
C2331     Br2338   1.906       .  S
C2332      C2333   1.396       .  A
C2332      H2337   1.084       .  S
C2333      C2334   1.418       .  A
C2339      C2340   1.412       .  A
C2339      C3280   1.406       .  A
C2339      H2346   1.081       .  S
C2340      C2341   1.417       .  A
C2341      C3278   1.400       .  A
C2341     Br2348   1.922       .  S
C2342      C3277   1.400       .  A
C2342      C2343   1.407       .  A
C2342      H2347   1.079       .  S
C2343      C2344   1.412       .  A
C2344      C3275   1.406       .  A
C2344     Br2345   1.918       .  S
C2349      C2350   1.403       .  A
C2349      C2354   1.404       .  A
C2349      H2356   1.077       .  S
C2350      C2351   1.412       .  A
C2351      C2352   1.404       .  A
C2351     Br3294   1.907       .  S
C2352      C2353   1.408       .  A
C2352      H3293   1.082       .  S
C2353      C2354   1.423       .  A
C2354     Br2355   1.926       .  S
H2357      C3288   1.082       .  S
Br2358     C3287   1.907       .  S
C2359      C2360   1.398       .  A
C2359      C2364   1.396       .  A
C2359      H2366   1.080       .  S
C2360      C2361   1.400       .  A
C2361      C2362   1.399       .  A
C2361     Br2368   1.917       .  S
C2362      C2363   1.416       .  A
C2362      H2367   1.078       .  S
C2363      C2364   1.422       .  A
C2364     Br2365   1.927       .  S
C2369      C2370   1.418       .  A
C2369      H2376   1.081       .  S
C2371      C2372   1.415       .  A
C2371     Br2378   1.921       .  S
C2372      C2373   1.409       .  A
C2372      H2377   1.072       .  S
C2373      C2374   1.406       .  A
C2379      C2380   1.410       .  A
C2379      H2386   1.080       .  S
C2381      C2382   1.409       .  A
C2381     Br2388   1.923       .  S
C2382      C2383   1.407       .  A
C2382      H2387   1.082       .  S
C2383      C2384   1.397       .  A
C2389      C2390   1.401       .  A
C2389      C2394   1.395       .  A
C2389      H2396   1.081       .  S
C2390      C2391   1.408       .  A
C2391      C2392   1.402       .  A
C2391     Br2398   1.917       .  S
C2392      C2393   1.412       .  A
C2392      H2397   1.083       .  S
C2393      C2394   1.419       .  A
C2394     Br2395   1.923       .  S
C2399      C2400   1.405       .  A
C2399      C3340   1.397   1_545  A
C2399      H2406   1.084       .  S
C2400      C3337   1.410   1_545  A
C2401      C3336   1.410       .  A
C2401      C2402   1.392       .  A
C2401     Br2408   1.918       .  S
C2402      C2403   1.405       .  A
C2402      H2407   1.083       .  S
C2403      C2404   1.412       .  A
C2404      C3335   1.397       .  A
C2404     Br3341   1.919       .  S
Br2405     C3340   1.919       .  S
C2409      C3346   1.410   1_545  A
C2409      C2414   1.411       .  A
C2409      H2416   1.082   1_545  S
C2410      C3345   1.410       .  A
C2410      C2411   1.399       .  A
C2411      C3348   1.380       .  A
C2411     Br2418   1.926       .  S
C2412      C3347   1.380       .  A
C2412      C2413   1.402       .  A
C2412      H2417   1.052       .  S
C2413      C2414   1.419       .  A
C2414     Br2415   1.918       .  S
C2419      C2420   1.408       .  A
C2419      C2424   1.411       .  A
C2419      H2426   1.082       .  S
C2420      C2421   1.406       .  A
C2421      C2422   1.388       .  A
C2421     Br2428   1.932       .  S
C2422      C2423   1.413       .  A
C2422      H2427   1.082       .  S
C2423      C2424   1.425       .  A
C2424     Br2425   1.924       .  S
C2429      C2430   1.416       .  A
C2429      C2434   1.413       .  A
C2429      H2436   1.080       .  S
C2430      C2431   1.414       .  A
C2431      C2432   1.403       .  A
C2431     Br2438   1.923       .  S
C2432      C2433   1.405       .  A
C2432      H2437   1.084       .  S
C2433      C2434   1.414       .  A
C2434     Br3371   1.922   1_545  S
Br2435     C3370   1.922       .  S
C2439      C2440   1.408       .  A
C2439      C2444   1.397       .  A
C2439      H2446   1.082       .  S
C2440      C2441   1.419       .  A
C2441      C2442   1.396       .  A
C2441     Br2448   1.919       .  S
C2442      C2443   1.400       .  A
C2442      H2447   1.084       .  S
C2443      C2444   1.408       .  A
C2444     Br2445   1.919       .  S
C2449      C2450   1.409       .  A
C2449      C2454   1.395       .  A
C2449      H2456   1.080       .  S
C2451      C2452   1.396       .  A
C2451     Br2458   1.917       .  S
C2452      H2457   1.084       .  S
C2453      C2454   1.400       .  A
C2454     Br2455   1.916       .  S
C2459      C2464   1.393       .  A
C2459      H2466   1.081       .  S
C2460      C2461   1.411       .  A
C2461      C2462   1.405       .  A
C2461     Br2468   1.918   1_556  S
C2462      H2467   1.083   1_556  S
C2463      C2464   1.413   1_455  A
C2464     Br2465   1.915       .  S
C2469      C2470   1.402       .  A
C2469      C2474   1.399       .  A
C2469      H2476   1.083       .  S
C2470      C2471   1.414       .  A
C2471      C2472   1.394       .  A
C2471     Br2478   1.922       .  S
C2472      C2473   1.402       .  A
C2472      H2477   1.083       .  S
C2473      C2474   1.418       .  A
C2479      C2480   1.408       .  A
C2479      C2484   1.405       .  A
C2479      H2486   1.080       .  S
C2480      C2481   1.409       .  A
C2481      C2482   1.386       .  A
C2481     Br2488   1.917       .  S
C2482      C2483   1.401       .  A
C2482      H2487   1.075       .  S
C2483      C2484   1.417       .  A
C2484     Br2485   1.910       .  S
C2489      C2490   1.410       .  A
C2489      C2494   1.406       .  A
C2489      H2496   1.083       .  S
C2490      C2491   1.414   1_556  A
C2491      C2492   1.394       .  A
C2491     Br2498   1.911       .  S
C2492      C2493   1.399   1_554  A
C2492      H2497   1.084       .  S
C2493      C2494   1.410       .  A
C2494     Br2495   1.917       .  S
C2499      C2500   1.404   1_554  A
C2499      C2504   1.395       .  A
C2499      H2506   1.084       .  S
C2500      C2501   1.410       .  A
C2501      C2502   1.392       .  A
C2501     Br2508   1.938       .  S
C2502      C2503   1.402   1_556  A
C2502      H2507   1.078       .  S
C2503      C2504   1.408       .  A
C2504     Br2505   1.920       .  S
C2509      C2510   1.423       .  A
C2509      C2514   1.416       .  A
C2509      H2516   1.076       .  S
C2510      C2511   1.413       .  A
C2511      C2512   1.385       .  A
C2511     Br2518   1.922       .  S
C2512      C2513   1.398       .  A
C2512      H2517   1.085       .  S
C2513      C2514   1.409       .  A
C2514     Br2515   1.914       .  S
C2519      C2520   1.407       .  A
C2519      C2524   1.398       .  A
C2519      H2526   1.081       .  S
C2520      C2521   1.411       .  A
C2521      C2522   1.400       .  A
C2521     Br2528   1.922       .  S
C2522      C2523   1.414       .  A
C2522      H2527   1.083       .  S
C2523      C2524   1.414       .  A
C2524     Br2525   1.926       .  S
C2529      C2530   1.409   1_545  A
C2529      C2534   1.401       .  A
C2529      H2536   1.083       .  S
C2530      C3467   1.409   1_556  A
C2531      C3466   1.409   1_554  A
C2531      C2532   1.397       .  A
C2531     Br2538   1.919       .  S
C2532      C3469   1.403   1_554  A
C2532      H2537   1.084       .  S
C2533      C3468   1.403   1_556  A
C2533      C2534   1.404   1_565  A
C2534     Br2535   1.916       .  S
C2539      C2540   1.402   1_546  A
C2539      C2544   1.392   1_556  A
C2539      H2546   1.083       .  S
C2540      C3477   1.407       .  A
C2541      C3476   1.407       .  A
C2541      C2542   1.401       .  A
C2541     Br2548   1.914       .  S
C2542      C3479   1.405       .  A
C2542      H2547   1.083       .  S
C2543      C3478   1.405   1_545  A
C2543      C2544   1.408       .  A
C2544     Br2545   1.925   1_554  S
C2549      C2550   1.408       .  A
C2549      C2554   1.401       .  A
C2549      H2556   1.077       .  S
C2550      C2551   1.410       .  A
C2551      C2552   1.401       .  A
C2551     Br3494   1.918       .  S
C2552      C2553   1.412       .  A
C2552      H2557   1.082       .  S
C2553      C2554   1.412       .  A
C2554     Br2555   1.922       .  S
Br2558     C3487   1.918       .  S
C2559      C2560   1.401       .  A
C2559      C2564   1.389       .  A
C2559      H2566   1.082       .  S
C2560      C2561   1.412       .  A
C2561      C2562   1.407       .  A
C2561     Br3504   1.916       .  S
C2562      C2563   1.408       .  A
C2562      H2567   1.083       .  S
C2563      C2564   1.413       .  A
C2564     Br2565   1.922       .  S
Br2568     C3497   1.916   1_545  S
C2569      C2570   1.412       .  A
C2569      C2574   1.387       .  A
C2569      H2576   1.079       .  S
C2570      C2571   1.429       .  A
C2571      C2572   1.399       .  A
C2572      C2573   1.397       .  A
C2573      C2574   1.397       .  A
C2574     Br2575   1.918       .  S
C2579      C2580   1.392       .  A
C2579      C2584   1.383       .  A
C2579      H2586   1.069       .  S
C2580      C2581   1.419       .  A
C2581      C2582   1.420       .  A
C2581     Br2588   1.908       .  S
C2582      C2583   1.411       .  A
C2582      H2587   1.082       .  S
C2583      C2584   1.413       .  A
C2584     Br2585   1.930       .  S
C2589      C2590   1.403       .  A
C2589      C3530   1.397       .  A
C2589      H2596   1.082       .  S
C2590      C2591   1.416       .  A
C2591      C3528   1.408       .  A
C2591     Br2598   1.918       .  S
C2592      C3527   1.408       .  A
C2592      C2593   1.411       .  A
C2592      H2597   1.083       .  S
C2593      C2594   1.417       .  A
C2594      C3525   1.397   1_545  A
C2594     Br2595   1.912       .  S
C2599      C2600   1.405       .  A
C2599      C2604   1.404       .  A
C2599      H2606   1.083       .  S
C2600      C2601   1.407       .  A
C2601      C2602   1.394       .  A
C2601     Br2608   1.924       .  S
C2602      C2603   1.405       .  A
C2602      H2607   1.077       .  S
C2603      C2604   1.409       .  A
C2604     Br2605   1.914       .  S
C2609      C2610   1.416       .  A
C2609      C2614   1.415       .  A
C2609      H2616   1.083       .  S
C2610      C2611   1.408       .  A
C2611      C2612   1.396       .  A
C2611     Br2618   1.920       .  S
C2612      C2613   1.407       .  A
C2612      H2617   1.078       .  S
C2613      C2614   1.417       .  A
C2614     Br3551   1.919       .  S
Br2615     C3550   1.919   1_545  S
C2619      C2620   1.403       .  A
C2619      C2624   1.389       .  A
C2619      H2626   1.083       .  S
C2620      C2621   1.414       .  A
C2621      C2622   1.414       .  A
C2621     Br2628   1.915       .  S
C2622      C2623   1.414       .  A
C2622      H2627   1.082       .  S
C2623      C2624   1.417       .  A
C2624     Br2625   1.930       .  S
C2629      C2630   1.393       .  A
C2629      C2634   1.394       .  A
C2629      H2636   1.084       .  S
C2630      C2631   1.405       .  A
C2631      C2632   1.404       .  A
C2631     Br2638   1.918       .  S
C2632      C2633   1.416       .  A
C2632      H2637   1.079       .  S
C2633      C2634   1.430       .  A
C2634     Br2635   1.922       .  S
C2639      C2640   1.401       .  A
C2639      C3580   1.395       .  A
C2639      H2646   1.084       .  S
C2640      C3577   1.411       .  A
C2641      C3576   1.411   1_545  A
C2641      C2642   1.399       .  A
C2641     Br2648   1.910       .  S
C2642      C2643   1.403       .  A
C2642      H2647   1.083       .  S
C2643      C2644   1.412       .  A
C2644      C3575   1.395   1_545  A
C2644     Br2645   1.915       .  S
C2649      C2650   1.410       .  A
C2649      C2654   1.400       .  A
C2649      H2656   1.083       .  S
C2650      C2651   1.417       .  A
C2651     Br2658   1.919       .  S
C2652      C2653   1.399       .  A
C2652      H2657   1.078       .  S
C2654     Br2655   1.914       .  S
C2659      C2660   1.410       .  A
C2659      C2664   1.413       .  A
C2659      H2666   1.083       .  S
C2660      C2661   1.414       .  A
C2661      C2662   1.402       .  A
C2661     Br2668   1.918       .  S
C2662      C2663   1.411       .  A
C2662      H2667   1.083       .  S
C2663      C2664   1.421       .  A
C2669      C2670   1.393       .  A
C2669      C2674   1.394       .  A
C2669      H2676   1.075       .  S
C2670      C2671   1.403       .  A
C2671      C2672   1.404       .  A
C2671     Br2678   1.911       .  S
C2672      C2673   1.416       .  A
C2672      H2677   1.080       .  S
C2673      C2674   1.425       .  A
C2674     Br2675   1.914       .  S
C2679      C2680   1.405       .  A
C2679      C2684   1.392       .  A
C2679      H2686   1.047       .  S
C2680      C2681   1.413       .  A
C2682      C2683   1.407   1_455  A
C2682      H2687   1.079       .  S
C2684     Br2685   1.923       .  S
C2689      C2690   1.407       .  A
C2689      C2694   1.412       .  A
C2690      C2691   1.404       .  A
C2691      C2692   1.392       .  A
C2691     Br2698   1.913       .  S
C2692      C2693   1.411       .  A
C2692      H2697   1.084       .  S
C2693      C2694   1.428       .  A
C2694     Br2695   1.916   1_655  S
C2699      C2700   1.402       .  A
C2699      C2704   1.403       .  A
C2699      H2706   1.072       .  S
C2700      C2701   1.406       .  A
C2701      C2702   1.399       .  A
C2701     Br2708   1.920   1_554  S
C2702      C2703   1.415       .  A
C2702      H2707   1.082       .  S
C2703      C2704   1.418       .  A
C2704     Br2705   1.922       .  S
C2709      C2710   1.405       .  A
C2709      C2714   1.392       .  A
C2709      H2716   1.074       .  S
C2710      C2711   1.414       .  A
C2711      C3648   1.408       .  A
C2711     Br2718   1.917       .  S
C2712      C3647   1.408       .  A
C2712      C2713   1.411   1_565  A
C2712      H2717   1.082   1_565  S
C2713      C3650   1.410   1_545  A
C2714      C3649   1.410       .  A
C2714     Br2715   1.925       .  S
C2719      C2720   1.407       .  A
C2719      C2724   1.401       .  A
C2719      H2726   1.081       .  S
C2720      C2721   1.413       .  A
C2721      C2722   1.398       .  A
C2721     Br2728   1.918       .  S
C2722      C2723   1.409       .  A
C2722      H2727   1.081       .  S
C2723      C2724   1.418       .  A
C2724     Br2725   1.924       .  S
C2729      C2730   1.398       .  A
C2729      C2734   1.398       .  A
C2729      H2736   1.083       .  S
C2730      C2731   1.415       .  A
C2731      C2732   1.409       .  A
C2731     Br3674   1.916   1_545  S
C2732      C2733   1.412       .  A
C2732      H2737   1.081       .  S
C2733      C2734   1.425       .  A
C2734     Br2735   1.927       .  S
Br2738     C3667   1.916       .  S
C2739      C2740   1.412       .  A
C2739      C3680   1.397   1_545  A
C2739      H2746   1.083       .  S
C2740      C3677   1.415       .  A
C2741      C3676   1.415       .  A
C2741      C2742   1.407       .  A
C2741     Br2748   1.919       .  S
C2742      C2743   1.407       .  A
C2742      H2747   1.082       .  S
C2743      C2744   1.412       .  A
C2744      C3675   1.397       .  A
C2744     Br2745   1.927       .  S
C2749      C2750   1.404       .  A
C2749      C2754   1.393       .  A
C2749      H2756   1.083       .  S
C2750      C2751   1.405       .  A
C2751      C2752   1.395       .  A
C2751     Br2758   1.914       .  S
C2752      C2753   1.409       .  A
C2752      H2757   1.083       .  S
C2753      C2754   1.413       .  A
C2754     Br2755   1.922       .  S
C2759      C2760   1.402   1_455  A
C2759      H2766   1.083       .  S
C2760      C2761   1.397       .  A
C2761      C2762   1.389   1_655  A
C2761     Br2768   1.924       .  S
C2762      H2767   1.063       .  S
C2763      C2764   1.413       .  A
C2764     Br2765   1.895       .  S
C2769      C2770   1.416       .  A
C2769      C2774   1.411       .  A
C2769      H2776   1.078       .  S
C2770      C2771   1.410       .  A
C2771      C2772   1.398       .  A
C2771     Br2778   1.922       .  S
C2772      C2773   1.403       .  A
C2772      H2777   1.084       .  S
C2773      C2774   1.416       .  A
C2779      C2780   1.408       .  A
C2779      C2784   1.400       .  A
C2779      H2786   1.083       .  S
C2780      C2781   1.421       .  A
C2781      C2782   1.408       .  A
C2781     Br2788   1.922       .  S
C2782      C2783   1.413       .  A
C2782      H2787   1.081       .  S
C2783      C2784   1.416       .  A
C2784     Br2785   1.901       .  S
C2789      C2790   1.408       .  A
C2789      H2796   1.083       .  S
C2791      C2792   1.407       .  A
C2791     Br2798   1.919       .  S
C2792      C2793   1.409       .  A
C2792      H2797   1.083       .  S
C2793      C2794   1.415       .  A
C2799      C2800   1.413       .  A
C2799      C2804   1.408       .  A
C2799      H2806   1.082       .  S
C2800      C2801   1.412       .  A
C2801      C2802   1.396       .  A
C2801     Br2808   1.914       .  S
C2802      C2803   1.411       .  A
C2802      H2807   1.083       .  S
C2803      C2804   1.416       .  A
C2804     Br2805   1.924       .  S
C2809      C2810   1.419       .  A
C2809      C2814   1.432       .  A
C2809      C3686   1.490       .  S
C2810      C2811   1.414       .  A
C2810      C3736   1.520       .  S
C2811      C2812   1.442       .  A
C2811      C3729   1.494       .  S
C2812      C2813   1.458       .  A
C2812      C3699   1.548       .  S
C2813      C2814   1.448       .  A
C2813      C3706   1.543       .  S
C2814      C3719   1.522       .  S
C2815      C2816   1.403       .  A
C2815      C2820   1.423       .  A
C2815      C3739   1.513       .  S
C2816      C2817   1.405       .  A
C2816      H2835   1.084       .  S
C2817      C2818   1.426       .  A
C2817      C3676   1.509       .  S
C2818      C2819   1.420       .  A
C2818      C2825   1.406       .  A
C2819      C2820   1.425       .  A
C2819      C2824   1.428       .  A
C2820      C2821   1.400       .  A
C2821      C2822   1.390       .  A
C2821      H2831   1.078       .  S
C2822      C2823   1.407       .  A
C2822      H2832   1.080       .  S
C2823      C2824   1.422       .  A
C2823      C2830   1.420       .  A
C2824      C2827   1.427       .  A
C2825      C2826   1.401       .  A
C2825      H2833   1.082       .  S
C2826      C2827   1.409       .  A
C2826      H2834   1.079       .  S
C2827      C2828   1.434       .  A
C2828      C2829   1.405       .  A
C2828      C3669   1.523       .  S
C2829      C2830   1.401       .  A
C2829      H2836   1.075       .  S
C2830      C3659   1.510       .  S
C2837      C2838   1.397       .  A
C2837      C2842   1.420       .  A
C2837      C3726   1.502       .  S
C2838      C2839   1.401       .  A
C2838      H2857   1.080       .  S
C2839      C2840   1.417       .  A
C2839      C3649   1.502       .  S
C2840      C2841   1.424       .  A
C2840      C2847   1.403       .  A
C2841      C2842   1.422       .  A
C2841      C2846   1.423       .  A
C2842      C2843   1.406       .  A
C2843      C2844   1.397       .  A
C2843      H2853   1.082       .  S
C2844      C2845   1.403       .  A
C2844      H2854   1.082       .  S
C2845      C2846   1.428       .  A
C2845      C2852   1.423       .  A
C2846      C2849   1.425       .  A
C2847      C2848   1.395       .  A
C2847      H2855   1.083       .  S
C2848      C2849   1.406       .  A
C2848      H2856   1.083       .  S
C2849      C2850   1.417       .  A
C2850      C2851   1.396       .  A
C2850      C3639   1.513       .  S
C2851      C2852   1.412       .  A
C2851      H2858   1.076       .  S
C2852      C3629   1.523       .  S
C2859      C2860   1.424       .  A
C2859      C2864   1.425       .  A
C2859      C3576   1.496       .  S
C2860      C2861   1.428       .  A
C2860      C3679   1.502       .  S
C2861      C2862   1.437       .  A
C2861      C3616   1.517       .  S
C2862      C2863   1.424       .  A
C2862      C3589   1.498       .  S
C2863      C2864   1.424       .  A
C2863      C3596   1.515       .  S
C2864      C3606   1.494       .  S
C2865      C2866   1.436       .  A
C2865      C2870   1.444       .  A
C2865      C3526   1.512       .  S
C2866      C2867   1.424       .  A
C2866      C3646   1.511       .  S
C2867      C2868   1.413       .  A
C2867      C3566   1.494       .  S
C2868      C2869   1.426       .  A
C2868      C3539   1.505       .  S
C2869      C2870   1.435       .  A
C2869      C3556   1.513       .  S
C2870      C3546   1.516       .  S
C2871      C2872   1.409       .  A
C2871      C2876   1.437       .  A
C2871      C3569   1.522       .  S
C2872      C2873   1.399       .  A
C2872      H2891   1.078       .  S
C2873      C2874   1.401       .  A
C2873      C3619   1.491       .  S
C2874      C2875   1.421       .  A
C2874      C2881   1.402       .  A
C2875      C2876   1.424       .  A
C2875      C2880   1.417       .  A
C2876      C2877   1.413       .  A
C2877      C2878   1.404       .  A
C2877      H2887   1.080       .  S
C2878      C2879   1.403       .  A
C2878      H2888   1.081       .  S
C2879      C2880   1.426       .  A
C2879      C2886   1.424       .  A
C2880      C2883   1.421       .  A
C2881      C2882   1.384       .  A
C2881      H2889   1.075       .  S
C2882      C2883   1.400       .  A
C2882      H2890   1.083       .  S
C2883      C2884   1.404       .  A
C2884      C2885   1.396       .  A
C2884      C3506   1.508       .  S
C2885      C2886   1.400       .  A
C2885      H2892   1.077       .  S
C2886      C3519   1.507       .  S
C2893      C2894   1.424       .  A
C2893      C3466   1.500   1_554  S
C2894      C2895   1.424       .  A
C2894      C3636   1.503       .  S
C2895      C2896   1.429       .  A
C2895      C3666   1.505       .  S
C2896      C3476   1.491       .  S
C2897      C2898   1.422       .  A
C2897      C3486   1.509       .  S
C2898      C3496   1.500       .  S
C2899      C2900   1.438   1_556  A
C2899      C2904   1.446       .  A
C2899      C3436   1.477       .  S
C2900      C2901   1.413       .  A
C2900      C3516   1.521       .  S
C2901      C2902   1.424   1_554  A
C2901      C3656   1.510       .  S
C2902      C2903   1.437       .  A
C2902      C3429   1.499       .  S
C2903      C2904   1.444       .  A
C2903      C3456   1.501       .  S
C2904      C3446   1.567       .  S
C2905      C2910   1.434       .  A
C2905      C3386   1.492   1_556  S
C2906      C2907   1.414       .  A
C2906      C3626   1.507       .  S
C2907      C3509   1.482       .  S
C2908      C2909   1.423       .  A
C2908      C3396   1.496       .  S
C2909      C2910   1.430       .  A
C2909      C3409   1.500       .  S
C2910      C3419   1.510       .  S
C2911      C2912   1.448       .  A
C2911      C2916   1.439       .  A
C2911      C3336   1.489       .  S
C2912      C2913   1.439       .  A
C2912      C3366   1.557       .  S
C2913      C2914   1.427       .  A
C2913      C3379   1.482       .  S
C2914      C2915   1.410       .  A
C2914      C3326   1.503       .  S
C2915      C2916   1.421       .  A
C2915      C3356   1.502       .  S
C2916      C3349   1.522       .  S
C2917      C2918   1.399       .  A
C2917      C2922   1.424       .  A
C2917      C3459   1.507       .  S
C2918      C2919   1.401       .  A
C2918      H2937   1.084       .  S
C2919      C2920   1.419       .  A
C2919      C3416   1.501       .  S
C2920      C2921   1.425       .  A
C2920      C2927   1.404       .  A
C2921      C2922   1.424       .  A
C2921      C2926   1.428       .  A
C2922      C2923   1.405       .  A
C2923      C2924   1.390       .  A
C2923      H2933   1.079       .  S
C2924      C2925   1.400       .  A
C2924      H2934   1.080       .  S
C2925      C2926   1.427       .  A
C2925      C2932   1.422       .  A
C2926      C2929   1.423       .  A
C2927      C2928   1.385       .  A
C2927      H2935   1.072       .  S
C2928      C2929   1.399       .  A
C2928      H2936   1.080       .  S
C2929      C2930   1.415       .  A
C2930      C2931   1.401       .  A
C2930      C3316   1.513       .  S
C2931      C2932   1.404       .  A
C2931      H2938   1.075       .  S
C2932      C3359   1.520       .  S
C2939      C2940   1.400       .  A
C2939      C2944   1.422       .  A
C2939      C3406   1.490       .  S
C2940      C2941   1.395       .  A
C2940      H2959   1.085       .  S
C2941      C2942   1.423       .  A
C2941      C3489   1.508       .  S
C2942      C2943   1.428       .  A
C2942      C2949   1.402       .  A
C2943      C2944   1.419       .  A
C2943      C2948   1.426       .  A
C2944      C2945   1.409       .  A
C2945      C2946   1.401       .  A
C2945      H2955   1.081       .  S
C2946      C2947   1.404       .  A
C2946      H2956   1.080       .  S
C2947      C2948   1.432       .  A
C2947      C2954   1.434       .  A
C2948      C2951   1.419       .  A
C2949      C2950   1.390       .  A
C2949      H2957   1.081       .  S
C2950      C2951   1.406       .  A
C2950      H2958   1.080       .  S
C2951      C2952   1.407       .  A
C2952      C2953   1.405       .  A
C2952      C3346   1.490       .  S
C2953      C2954   1.405       .  A
C2953      H2960   1.081       .  S
C2954      C3306   1.533       .  S
C2961      C2962   1.433       .  A
C2961      C2966   1.427       .  A
C2961      C3266   1.513       .  S
C2962      C2963   1.423       .  A
C2962      C3319   1.499       .  S
C2963      C2964   1.431       .  A
C2963      C3279   1.518       .  S
C2964      C2965   1.425       .  A
C2964      C3259   1.487       .  S
C2965      C2966   1.423       .  A
C2965      C3286   1.515       .  S
C2966      C3296   1.488       .  S
C2967      C2968   1.428       .  A
C2967      C2972   1.440       .  A
C2967      C3209   1.495       .  S
C2968      C2969   1.418       .  A
C2968      C3309   1.525       .  S
C2969      C2970   1.434       .  A
C2969      C3226   1.504       .  S
C2970      C2971   1.434       .  A
C2970      C3219   1.490       .  S
C2971      C2972   1.432       .  A
C2971      C3236   1.527       .  S
C2972      C3246   1.517       .  S
C2973      C2974   1.403       .  A
C2973      C2978   1.426       .  A
C2973      C3499   1.495       .  S
C2974      C2975   1.393       .  A
C2974      H2993   1.085       .  S
C2975      C2976   1.413       .  A
C2975      C3449   1.484       .  S
C2976      C2977   1.419       .  A
C2976      C2983   1.402       .  A
C2977      C2978   1.424       .  A
C2977      C2982   1.428       .  A
C2978      C2979   1.407       .  A
C2979      C2980   1.397       .  A
C2979      H2989   1.081       .  S
C2980      C2981   1.407       .  A
C2980      H2990   1.082   1_565  S
C2981      C2982   1.425       .  A
C2981      C2988   1.422       .  A
C2982      C2985   1.430       .  A
C2983      C2984   1.392       .  A
C2983      H2991   1.082       .  S
C2984      C2985   1.406       .  A
C2984      H2992   1.078       .  S
C2985      C2986   1.423       .  A
C2986      C2987   1.406       .  A
C2986      C3229   1.520       .  S
C2987      C2988   1.406       .  A
C2987      H2994   1.078       .  S
C2988      C3276   1.516   1_565  S
C2995      C2996   1.403       .  A
C2995      C3000   1.409       .  A
C2995      C3709   1.496       .  S
C2996      C2997   1.415       .  A
C2996      H3015   1.083       .  S
C2997      C2998   1.433       .  A
C2997      C3599   1.523       .  S
C2998      C2999   1.426       .  A
C2998      C3005   1.407       .  A
C2999      C3000   1.420       .  A
C3000      C3001   1.400       .  A
C3001      H3011   1.076       .  S
C3002      C3003   1.400       .  A
C3002      H3012   1.078       .  S
C3003      C3004   1.430       .  A
C3003      C3010   1.421       .  A
C3004      C3007   1.423       .  A
C3005      H3013   1.081       .  S
C3006      C3007   1.407       .  A
C3006      H3014   1.082       .  S
C3007      C3008   1.423       .  A
C3008      C3009   1.398       .  A
C3008      C3249   1.507       .  S
C3009      C3010   1.397       .  A
C3009      H3016   1.075       .  S
C3010      C3299   1.517       .  S
C3017      C3018   1.401       .  A
C3017      C3022   1.419       .  A
C3017      C3716   1.520       .  S
C3018      C3019   1.404       .  A
C3018      H3037   1.080       .  S
C3019      C3020   1.428       .  A
C3019      C3559   1.511       .  S
C3020      C3021   1.424       .  A
C3020      C3027   1.409       .  A
C3021      C3022   1.429       .  A
C3021      C3026   1.431       .  A
C3022      C3023   1.397       .  A
C3023      C3024   1.386       .  A
C3023      H3033   1.081       .  S
C3024      C3025   1.408       .  A
C3024      H3034   1.075       .  S
C3025      C3026   1.421       .  A
C3025      C3032   1.421       .  A
C3026      C3029   1.428       .  A
C3027      C3028   1.402       .  A
C3027      H3035   1.080       .  S
C3028      C3029   1.407       .  A
C3028      H3036   1.082       .  S
C3029      C3030   1.436       .  A
C3030      C3031   1.406       .  A
C3030      C3239   1.523       .  S
C3031      C3032   1.402       .  A
C3031      H3038   1.084       .  S
C3032      C3376   1.501       .  S
C3039      C3040   1.405       .  A
C3039      C3044   1.430       .  A
C3039      C3609   1.525       .  S
C3040      C3041   1.408       .  A
C3040      H3059   1.080       .  S
C3041      C3042   1.426       .  A
C3041      C3549   1.516       .  S
C3042      C3043   1.425       .  A
C3042      C3049   1.403       .  A
C3043      C3044   1.427       .  A
C3044      C3045   1.404       .  A
C3045      H3055   1.077       .  S
C3046      C3047   1.399       .  A
C3046      H3056   1.078       .  S
C3047      C3048   1.424       .  A
C3047      C3054   1.415       .  A
C3048      C3051   1.427       .  A
C3049      H3057   1.079       .  S
C3050      C3051   1.411       .  A
C3050      H3058   1.078       .  S
C3051      C3052   1.437       .  A
C3052      C3053   1.408       .  A
C3052      C3289   1.519       .  S
C3053      C3054   1.398       .  A
C3053      H3060   1.081       .  S
C3054      C3369   1.503       .  S
O3061      C3096   1.235       .  S
O3061     Mg3069   2.156   1_554  S
C3062      H3101   1.081       .  S
C3062      O3075   1.234       .  S
C3062      O3099   1.269       .  A
Mg3063     O3092   2.158   1_554  S
Mg3063     O3107   2.272   1_554  S
Mg3063     O3103   2.247       .  S
Mg3063     O3074   2.300       .  S
O3064      C3085   1.235       .  S
O3064     Mg3106   2.163   1_554  S
O3064     Mg3089   2.161       .  S
O3065     Mg3089   2.306       .  S
C3066      C3469   1.472       .  S
C3066      O3080   1.271       .  A
O3067     Mg3069   2.300       .  S
O3068     Mg3100   2.248       .  S
Mg3069     O3083   2.293       .  S
Mg3069     O3071   2.279   1_556  S
C3070      C3389   1.466       .  S
C3070      O3076   1.277       .  A
H3072      C3085   1.081       .  S
C3073      H3098   1.081       .  S
C3073      O3087   1.235       .  S
O3074      C3097   1.268       .  A
O3075     Mg3089   2.151   1_556  S
O3076     Mg3106   2.321   1_554  S
C3077      C3426   1.492       .  S
C3077      O3090   1.274       .  A
C3077      O3082   1.277   1_556  A
C3078      C3479   1.471       .  S
C3078      O3105   1.272       .  A
Mg3079     O3087   2.151   1_554  S
Mg3079     O3080   2.312   1_554  S
Mg3079     O3081   2.308       .  S
Mg3079     O3108   2.209       .  S
O3082     Mg3089   2.324       .  S
O3084      C3104   1.268       .  A
O3084     Mg3100   2.270   1_554  S
O3086      C3097   1.233       .  S
O3086     Mg3100   2.137   1_554  S
O3088     Mg3100   2.306   1_545  S
Mg3089     O3105   2.264       .  S
O3090     Mg3106   2.273       .  S
H3091      C3096   1.081       .  S
O3092      C3095   1.235       .  S
O3092     Mg3100   2.149       .  S
H3093      C3095   1.081       .  S
H3094      C3097   1.081       .  S
O3099     Mg3106   2.303       .  S
C3102      C3399   1.488       .  S
C3102      O3107   1.270   1_455  A
O3103      C3104   1.269       .  A
C3104      C3439   1.467       .  S
O3109      C3144   1.235       .  S
O3109     Mg3111   2.157       .  S
O3109     Mg3117   2.157       .  S
C3110      H3149   1.081       .  S
C3110      O3123   1.237       .  S
C3110      O3147   1.274       .  A
Mg3111     O3140   2.146       .  S
Mg3111     O3155   2.325       .  S
Mg3111     O3151   2.273       .  S
Mg3111     O3122   2.312       .  S
O3112      C3133   1.234       .  S
O3112     Mg3154   2.127       .  S
O3112     Mg3137   2.097       .  S
O3113      C3144   1.271       .  A
O3113     Mg3137   2.313       .  S
C3114      C3689   1.478       .  S
C3114      O3116   1.270       .  A
C3114      O3128   1.270       .  A
O3115      C3143   1.268       .  A
O3115     Mg3117   2.306       .  S
O3116     Mg3148   2.262       .  S
Mg3117     O3123   2.178       .  S
Mg3117     O3131   2.295       .  S
Mg3117     O3119   2.288       .  S
C3118      C3536   1.472       .  S
C3118      O3156   1.273       .  A
C3118      O3124   1.265       .  A
O3119      C3126   1.273       .  A
H3120      C3133   1.081       .  S
C3121      H3146   1.081       .  S
C3121      O3135   1.234       .  S
C3121      O3136   1.268       .  A
O3122      C3145   1.271       .  A
O3123     Mg3137   2.162       .  S
O3124     Mg3154   2.272       .  S
C3125      C3586   1.489       .  S
C3125      O3138   1.266       .  A
C3125      O3130   1.266       .  A
C3126      C3696   1.464       .  S
C3126      O3153   1.257       .  A
Mg3127     O3134   2.171       .  S
Mg3127     O3135   2.139       .  S
Mg3127     O3128   2.258       .  S
Mg3127     O3129   2.300       .  S
Mg3127     O3156   2.292       .  S
O3129      C3133   1.268       .  A
O3130     Mg3137   2.282       .  S
O3131      C3150   1.274       .  A
O3132      C3152   1.274       .  A
O3132     Mg3148   2.295       .  S
O3134      C3145   1.235       .  S
O3134     Mg3148   2.168       .  S
O3135     Mg3154   2.132       .  S
O3136     Mg3148   2.295       .  S
Mg3137     O3153   2.169       .  S
O3138     Mg3154   2.254       .  S
H3139      C3144   1.081       .  S
O3140      C3143   1.232       .  S
O3140     Mg3148   2.157       .  S
H3141      C3143   1.081       .  S
H3142      C3145   1.081       .  S
O3147     Mg3154   2.320       .  S
C3150      C3529   1.505       .  S
C3150      O3155   1.276       .  A
O3151      C3152   1.272       .  A
C3152      C3579   1.481       .  S
O3157      C3192   1.235       .  S
O3157     Mg3159   2.129       .  S
O3157     Mg3165   2.153       .  S
C3158      H3197   1.081       .  S
C3158      O3171   1.234       .  S
C3158      O3195   1.267       .  A
Mg3159     O3188   2.154       .  S
Mg3159     O3203   2.283       .  S
Mg3159     O3199   2.244       .  S
Mg3159     O3170   2.307       .  S
O3160      C3181   1.235       .  S
O3160     Mg3202   2.164       .  S
O3160     Mg3185   2.150       .  S
O3161      C3192   1.270       .  A
O3161     Mg3185   2.302       .  S
C3162      C3216   1.483       .  S
C3162      O3164   1.269       .  A
C3162      O3176   1.274       .  A
O3163      C3191   1.269       .  A
O3163     Mg3165   2.296       .  S
O3164     Mg3196   2.236       .  S
Mg3165     O3171   2.125       .  S
Mg3165     O3179   2.233       .  S
Mg3165     O3167   2.271       .  S
C3166      C3329   1.494       .  S
C3166      O3204   1.273       .  A
C3166      O3172   1.273       .  A
O3167      C3174   1.269       .  A
H3168      C3181   1.081       .  S
C3169      H3194   1.081       .  S
C3169      O3183   1.234       .  S
C3169      O3184   1.270       .  A
O3170      C3193   1.270       .  A
O3171     Mg3185   2.146       .  S
O3172     Mg3202   2.298       .  S
C3173      C3269   1.488       .  S
C3173      O3186   1.276       .  A
C3173      O3178   1.268       .  A
C3174      C3206   1.464       .  S
C3174      O3201   1.268       .  A
Mg3175     O3182   2.166       .  S
Mg3175     O3183   2.146       .  S
Mg3175     O3176   2.308       .  S
Mg3175     O3177   2.310       .  S
Mg3175     O3204   2.274       .  S
O3177      C3181   1.271       .  A
O3178     Mg3185   2.274       .  S
O3179      C3198   1.268       .  A
O3180      C3200   1.276       .  A
O3180     Mg3196   2.319       .  S
O3182      C3193   1.234       .  S
O3182     Mg3196   2.162       .  S
O3183     Mg3202   2.166       .  S
O3184     Mg3196   2.309       .  S
Mg3185     O3201   2.254       .  S
O3186     Mg3202   2.294       .  S
H3187      C3192   1.081       .  S
O3188      C3191   1.236       .  S
O3188     Mg3196   2.139       .  S
H3189      C3191   1.081       .  S
H3190      C3193   1.081       .  S
O3195     Mg3202   2.287       .  S
C3198      C3339   1.476       .  S
C3198      O3203   1.271       .  A
O3199      C3200   1.267       .  A
C3200      C3256   1.494       .  S
C3205      C3206   1.402       .  A
C3205      C3210   1.392       .  A
C3205      H3212   1.084       .  S
C3206      C3207   1.402       .  A
C3207     Br3214   1.917       .  S
C3208      C3209   1.411       .  A
C3208      H3213   1.084       .  S
C3210     Br3211   1.918       .  S
C3215      C3216   1.405       .  A
C3215      C3220   1.396       .  A
C3215      H3222   1.083       .  S
C3216      C3217   1.416       .  A
C3217      C3218   1.398       .  A
C3217     Br3224   1.922       .  S
C3218      C3219   1.400       .  A
C3218      H3223   1.084       .  S
C3219      C3220   1.415       .  A
C3220     Br3221   1.930       .  S
C3225      C3226   1.393       .  A
C3225      C3230   1.393       .  A
C3225      H3232   1.074       .  S
C3226      C3227   1.417       .  A
C3227      C3228   1.415       .  A
C3227     Br3234   1.918       .  S
C3228      C3229   1.414       .  A
C3228      H3233   1.082       .  S
C3229      C3230   1.410       .  A
C3230     Br3231   1.904       .  S
C3235      C3236   1.410       .  A
C3235      C3240   1.405       .  A
C3235      H3242   1.070       .  S
C3236      C3237   1.410       .  A
C3237      C3238   1.409       .  A
C3237     Br3244   1.917       .  S
C3238      C3239   1.418       .  A
C3238      H3243   1.079       .  S
C3239      C3240   1.412       .  A
C3240     Br3241   1.923       .  S
C3245      C3246   1.406       .  A
C3245      C3250   1.393       .  A
C3245      H3252   1.081       .  S
C3246      C3247   1.421       .  A
C3247      C3248   1.410       .  A
C3247     Br3254   1.916       .  S
C3248      C3249   1.408       .  A
C3248      H3253   1.082       .  S
C3249      C3250   1.415       .  A
C3255      C3256   1.411       .  A
C3255      C3260   1.401       .  A
C3255      H3262   1.081       .  S
C3256      C3257   1.419   1_565  A
C3258      C3259   1.399       .  A
C3258      H3263   1.083       .  S
C3260     Br3261   1.922       .  S
C3265      C3266   1.404       .  A
C3265      H3272   1.084       .  S
C3267      C3268   1.397       .  A
C3267     Br3274   1.906       .  S
C3268      C3269   1.396       .  A
C3268      H3273   1.084       .  S
C3269      C3270   1.418       .  A
C3275      C3276   1.412       .  A
C3275      H3282   1.081       .  S
C3276      C3277   1.417       .  A
C3277     Br3284   1.922       .  S
C3278      C3279   1.407       .  A
C3278      H3283   1.079       .  S
C3279      C3280   1.412       .  A
C3280     Br3281   1.918       .  S
C3285      C3286   1.403       .  A
C3285      C3290   1.404       .  A
C3285      H3292   1.077       .  S
C3286      C3287   1.412       .  A
C3287      C3288   1.404       .  A
C3288      C3289   1.408       .  A
C3289      C3290   1.423       .  A
C3290     Br3291   1.926       .  S
C3295      C3296   1.398       .  A
C3295      C3300   1.396       .  A
C3295      H3302   1.080       .  S
C3296      C3297   1.400       .  A
C3297      C3298   1.399       .  A
C3297     Br3304   1.917       .  S
C3298      C3299   1.416       .  A
C3298      H3303   1.078       .  S
C3299      C3300   1.422       .  A
C3300     Br3301   1.927       .  S
C3305      C3306   1.418       .  A
C3305      H3312   1.081       .  S
C3307      C3308   1.415       .  A
C3307     Br3314   1.921       .  S
C3308      C3309   1.409       .  A
C3308      H3313   1.072       .  S
C3309      C3310   1.406       .  A
C3315      C3316   1.410       .  A
C3315      H3322   1.080       .  S
C3317      C3318   1.409       .  A
C3317     Br3324   1.923       .  S
C3318      C3319   1.407       .  A
C3318      H3323   1.082       .  S
C3319      C3320   1.397       .  A
C3325      C3326   1.401       .  A
C3325      C3330   1.395       .  A
C3325      H3332   1.081       .  S
C3326      C3327   1.408       .  A
C3327      C3328   1.402       .  A
C3327     Br3334   1.917       .  S
C3328      C3329   1.412       .  A
C3328      H3333   1.083       .  S
C3329      C3330   1.419       .  A
C3330     Br3331   1.923       .  S
C3335      C3336   1.405       .  A
C3335      H3342   1.084       .  S
C3337      C3338   1.392       .  A
C3337     Br3344   1.918       .  S
C3338      C3339   1.405       .  A
C3338      H3343   1.083       .  S
C3339      C3340   1.412       .  A
C3345      C3350   1.411       .  A
C3345      H3352   1.082       .  S
C3346      C3347   1.399   1_565  A
C3347     Br3354   1.926       .  S
C3348      C3349   1.402       .  A
C3348      H3353   1.052       .  S
C3349      C3350   1.419       .  A
C3350     Br3351   1.918       .  S
C3355      C3356   1.408       .  A
C3355      C3360   1.411       .  A
C3355      H3362   1.082       .  S
C3356      C3357   1.406       .  A
C3357      C3358   1.388       .  A
C3357     Br3364   1.932       .  S
C3358      C3359   1.413       .  A
C3358      H3363   1.082       .  S
C3359      C3360   1.425       .  A
C3360     Br3361   1.924       .  S
C3365      C3366   1.416       .  A
C3365      C3370   1.413       .  A
C3365      H3372   1.080       .  S
C3366      C3367   1.414       .  A
C3367      C3368   1.403       .  A
C3367     Br3374   1.923       .  S
C3368      C3369   1.405       .  A
C3368      H3373   1.084       .  S
C3369      C3370   1.414       .  A
C3375      C3376   1.408       .  A
C3375      C3380   1.397       .  A
C3375      H3382   1.082       .  S
C3376      C3377   1.419       .  A
C3377      C3378   1.396       .  A
C3377     Br3384   1.919       .  S
C3378      C3379   1.400       .  A
C3378      H3383   1.084       .  S
C3379      C3380   1.408       .  A
C3380     Br3381   1.919       .  S
C3385      C3386   1.409       .  A
C3385      C3390   1.395       .  A
C3385      H3392   1.080       .  S
C3387      C3388   1.396       .  A
C3387     Br3394   1.917       .  S
C3388      H3393   1.084       .  S
C3389      C3390   1.400       .  A
C3390     Br3391   1.916       .  S
C3395      C3400   1.393       .  A
C3395      H3402   1.081       .  S
C3396      C3397   1.411       .  A
C3397      C3398   1.405       .  A
C3397     Br3404   1.918   1_556  S
C3398      H3403   1.083   1_556  S
C3399      C3400   1.413   1_455  A
C3400     Br3401   1.915       .  S
C3405      C3406   1.402       .  A
C3405      C3410   1.399       .  A
C3405      H3412   1.083       .  S
C3406      C3407   1.414       .  A
C3407      C3408   1.394       .  A
C3407     Br3414   1.922       .  S
C3408      C3409   1.402       .  A
C3408      H3413   1.083       .  S
C3409      C3410   1.418       .  A
C3415      C3416   1.408       .  A
C3415      C3420   1.405       .  A
C3415      H3422   1.080       .  S
C3416      C3417   1.409       .  A
C3417      C3418   1.386       .  A
C3417     Br3424   1.917       .  S
C3418      C3419   1.401       .  A
C3418      H3423   1.075       .  S
C3419      C3420   1.417       .  A
C3420     Br3421   1.910       .  S
C3425      C3426   1.410       .  A
C3425      C3430   1.406       .  A
C3425      H3432   1.083       .  S
C3426      C3427   1.414   1_556  A
C3427      C3428   1.394       .  A
C3427     Br3434   1.911       .  S
C3428      C3429   1.399   1_554  A
C3428      H3433   1.084       .  S
C3429      C3430   1.410       .  A
C3430     Br3431   1.917       .  S
C3435      C3436   1.404   1_554  A
C3435      C3440   1.395       .  A
C3435      H3442   1.084       .  S
C3436      C3437   1.410       .  A
C3437      C3438   1.392       .  A
C3437     Br3444   1.938       .  S
C3438      C3439   1.402   1_556  A
C3438      H3443   1.078       .  S
C3439      C3440   1.408       .  A
C3440     Br3441   1.920       .  S
C3445      C3446   1.423       .  A
C3445      C3450   1.416       .  A
C3445      H3452   1.076       .  S
C3446      C3447   1.413       .  A
C3447      C3448   1.385       .  A
C3447     Br3454   1.922       .  S
C3448      C3449   1.398       .  A
C3448      H3453   1.085       .  S
C3449      C3450   1.409       .  A
C3450     Br3451   1.914       .  S
C3455      C3456   1.407       .  A
C3455      C3460   1.398       .  A
C3455      H3462   1.081       .  S
C3456      C3457   1.411       .  A
C3457      C3458   1.400       .  A
C3457     Br3464   1.922       .  S
C3458      C3459   1.414       .  A
C3458      H3463   1.083       .  S
C3459      C3460   1.414       .  A
C3460     Br3461   1.926       .  S
C3465      C3466   1.409       .  A
C3465      C3470   1.401       .  A
C3465      H3472   1.083       .  S
C3467      C3468   1.396       .  A
C3467     Br3474   1.919       .  S
C3468      H3473   1.084       .  S
C3469      C3470   1.404       .  A
C3470     Br3471   1.916       .  S
C3475      C3476   1.402   1_556  A
C3475      C3480   1.392   1_556  A
C3475      H3482   1.083       .  S
C3477      C3478   1.401       .  A
C3477     Br3484   1.914       .  S
C3478      H3483   1.083       .  S
C3479      C3480   1.408       .  A
C3480     Br3481   1.925   1_554  S
C3485      C3486   1.408       .  A
C3485      C3490   1.401       .  A
C3485      H3492   1.077   1_565  S
C3486      C3487   1.410       .  A
C3487      C3488   1.401       .  A
C3488      C3489   1.412       .  A
C3488      H3493   1.082       .  S
C3489      C3490   1.412       .  A
C3490     Br3491   1.922       .  S
C3495      C3496   1.401       .  A
C3495      C3500   1.389       .  A
C3495      H3502   1.082       .  S
C3496      C3497   1.412       .  A
C3497      C3498   1.407       .  A
C3498      C3499   1.408       .  A
C3498      H3503   1.083       .  S
C3499      C3500   1.413       .  A
C3500     Br3501   1.922       .  S
C3505      C3506   1.412       .  A
C3505      C3510   1.387       .  A
C3505      H3512   1.079       .  S
C3506      C3507   1.429       .  A
C3507      C3508   1.399       .  A
C3508      C3509   1.397       .  A
C3509      C3510   1.397       .  A
C3510     Br3511   1.918       .  S
C3515      C3516   1.392       .  A
C3515      C3520   1.383       .  A
C3515      H3522   1.069       .  S
C3516      C3517   1.419       .  A
C3517      C3518   1.420       .  A
C3517     Br3524   1.907       .  S
C3518      C3519   1.411       .  A
C3518      H3523   1.082       .  S
C3519      C3520   1.413       .  A
C3520     Br3521   1.930       .  S
C3525      C3526   1.403       .  A
C3525      H3532   1.082       .  S
C3526      C3527   1.416   1_565  A
C3527     Br3534   1.918       .  S
C3528      C3529   1.411       .  A
C3528      H3533   1.083       .  S
C3529      C3530   1.417       .  A
C3530     Br3531   1.912       .  S
C3535      C3536   1.405       .  A
C3535      C3540   1.404       .  A
C3535      H3542   1.083       .  S
C3536      C3537   1.407       .  A
C3537      C3538   1.394       .  A
C3537     Br3544   1.924       .  S
C3538      C3539   1.405       .  A
C3538      H3543   1.077       .  S
C3539      C3540   1.409       .  A
C3540     Br3541   1.914       .  S
C3545      C3546   1.416       .  A
C3545      C3550   1.415       .  A
C3545      H3552   1.083       .  S
C3546      C3547   1.408       .  A
C3547      C3548   1.396       .  A
C3547     Br3554   1.920       .  S
C3548      C3549   1.407       .  A
C3548      H3553   1.078       .  S
C3549      C3550   1.417       .  A
C3555      C3556   1.403       .  A
C3555      C3560   1.389       .  A
C3555      H3562   1.083       .  S
C3556      C3557   1.414       .  A
C3557      C3558   1.414       .  A
C3557     Br3564   1.915       .  S
C3558      C3559   1.414       .  A
C3558      H3563   1.082       .  S
C3559      C3560   1.417       .  A
C3560     Br3561   1.930       .  S
C3565      C3566   1.393       .  A
C3565      C3570   1.394       .  A
C3565      H3572   1.084       .  S
C3566      C3567   1.405       .  A
C3567      C3568   1.404       .  A
C3567     Br3574   1.918       .  S
C3568      C3569   1.416       .  A
C3568      H3573   1.079       .  S
C3569      C3570   1.430       .  A
C3570     Br3571   1.922       .  S
C3575      C3576   1.401       .  A
C3575      H3582   1.084       .  S
C3577      C3578   1.399       .  A
C3577     Br3584   1.910       .  S
C3578      C3579   1.403       .  A
C3578      H3583   1.083       .  S
C3579      C3580   1.412       .  A
C3580     Br3581   1.915       .  S
C3585      C3586   1.410       .  A
C3585      C3590   1.400       .  A
C3585      H3592   1.083       .  S
C3586      C3587   1.417       .  A
C3587     Br3594   1.919       .  S
C3588      C3589   1.399       .  A
C3588      H3593   1.078       .  S
C3590     Br3591   1.914       .  S
C3595      C3596   1.410       .  A
C3595      C3600   1.413       .  A
C3595      H3602   1.083       .  S
C3596      C3597   1.414       .  A
C3597      C3598   1.402       .  A
C3597     Br3604   1.918       .  S
C3598      C3599   1.411       .  A
C3598      H3603   1.083       .  S
C3599      C3600   1.421       .  A
C3605      C3606   1.393       .  A
C3605      C3610   1.394       .  A
C3605      H3612   1.075       .  S
C3606      C3607   1.403       .  A
C3607      C3608   1.404       .  A
C3607     Br3614   1.911       .  S
C3608      C3609   1.416       .  A
C3608      H3613   1.080       .  S
C3609      C3610   1.425       .  A
C3610     Br3611   1.914       .  S
C3615      C3616   1.405       .  A
C3615      C3620   1.393       .  A
C3615      H3622   1.046       .  S
C3616      C3617   1.413       .  A
C3618      C3619   1.407   1_455  A
C3618      H3623   1.079       .  S
C3620     Br3621   1.923       .  S
C3625      C3626   1.407       .  A
C3625      C3630   1.412       .  A
C3626      C3627   1.404       .  A
C3627      C3628   1.392       .  A
C3627     Br3634   1.913       .  S
C3628      C3629   1.411       .  A
C3628      H3633   1.084       .  S
C3629      C3630   1.428       .  A
C3630     Br3631   1.916   1_655  S
C3635      C3636   1.402       .  A
C3635      C3640   1.403       .  A
C3635      H3642   1.072       .  S
C3636      C3637   1.406       .  A
C3637      C3638   1.399       .  A
C3637     Br3644   1.920   1_554  S
C3638      C3639   1.415       .  A
C3638      H3643   1.082       .  S
C3639      C3640   1.418       .  A
C3640     Br3641   1.922       .  S
C3645      C3646   1.405       .  A
C3645      C3650   1.392       .  A
C3645      H3652   1.074       .  S
C3646      C3647   1.414       .  A
C3647     Br3654   1.917       .  S
C3648      C3649   1.411       .  A
C3648      H3653   1.082       .  S
C3650     Br3651   1.925       .  S
C3655      C3656   1.407       .  A
C3655      C3660   1.401       .  A
C3655      H3662   1.081       .  S
C3656      C3657   1.413       .  A
C3657      C3658   1.398       .  A
C3657     Br3664   1.918       .  S
C3658      C3659   1.409       .  A
C3658      H3663   1.081       .  S
C3659      C3660   1.418       .  A
C3660     Br3661   1.924       .  S
C3665      C3666   1.398       .  A
C3665      C3670   1.398       .  A
C3665      H3672   1.083       .  S
C3666      C3667   1.415       .  A
C3667      C3668   1.409       .  A
C3668      C3669   1.412       .  A
C3668      H3673   1.081       .  S
C3669      C3670   1.425       .  A
C3670     Br3671   1.927       .  S
C3675      C3676   1.412       .  A
C3675      H3682   1.083       .  S
C3677      C3678   1.407   1_545  A
C3677     Br3684   1.919       .  S
C3678      C3679   1.407       .  A
C3678      H3683   1.082       .  S
C3679      C3680   1.412       .  A
C3680     Br3681   1.927       .  S
C3685      C3686   1.404       .  A
C3685      C3690   1.393       .  A
C3685      H3692   1.083       .  S
C3686      C3687   1.405       .  A
C3687      C3688   1.395       .  A
C3687     Br3694   1.914       .  S
C3688      C3689   1.409       .  A
C3688      H3693   1.083       .  S
C3689      C3690   1.413       .  A
C3690     Br3691   1.922       .  S
C3695      C3696   1.402   1_455  A
C3695      H3702   1.083       .  S
C3696      C3697   1.397       .  A
C3697      C3698   1.389   1_655  A
C3697     Br3704   1.924       .  S
C3698      H3703   1.063       .  S
C3699      C3700   1.414       .  A
C3700     Br3701   1.895       .  S
C3705      C3706   1.416       .  A
C3705      C3710   1.411       .  A
C3705      H3712   1.078       .  S
C3706      C3707   1.410       .  A
C3707      C3708   1.398       .  A
C3707     Br3714   1.922       .  S
C3708      C3709   1.403       .  A
C3708      H3713   1.084       .  S
C3709      C3710   1.416       .  A
C3715      C3716   1.408       .  A
C3715      C3720   1.400       .  A
C3715      H3722   1.083       .  S
C3716      C3717   1.421       .  A
C3717      C3718   1.408       .  A
C3717     Br3724   1.922       .  S
C3718      C3719   1.413       .  A
C3718      H3723   1.081       .  S
C3719      C3720   1.416       .  A
C3720     Br3721   1.901       .  S
C3725      C3726   1.408       .  A
C3725      H3732   1.083       .  S
C3727      C3728   1.408       .  A
C3727     Br3734   1.919       .  S
C3728      C3729   1.409       .  A
C3728      H3733   1.083       .  S
C3729      C3730   1.415       .  A
C3735      C3736   1.413       .  A
C3735      C3740   1.408       .  A
C3735      H3742   1.082       .  S
C3736      C3737   1.412       .  A
C3737      C3738   1.397       .  A
C3737     Br3744   1.914       .  S
C3738      C3739   1.411       .  A
C3738      H3743   1.083       .  S
C3739      C3740   1.416       .  A
C3740     Br3741   1.924       .  S
