geometry optimzed in LAMMPS
_audit_creation_date              2020-11-30 
_audit_creation_method            'lammps2cif' 
_symmetry_space_group_name_H-M    'P1' 
_symmetry_Int_Tables_number       1 
_symmetry_cell_setting            triclinic 
loop_ 
_symmetry_equiv_pos_as_xyz 
  x,y,z 
_cell_length_a                    32.059351284420416 
_cell_length_b                    32.03881732755579 
_cell_length_c                    25.84698842356475 
_cell_angle_alpha                 90.97498515183125 
_cell_angle_beta                  90.48354266470315 
_cell_angle_gamma                 119.94296371819584 
loop_ 
_atom_site_label 
_atom_site_type_symbol 
_atom_site_fract_x 
_atom_site_fract_y 
_atom_site_fract_z 
_atom_site_charge 
N1          N  0.84072773  0.77198138  0.78495790    -0.06740
N2          N  0.85629137  0.81857067  0.78943619    -0.58860
N3          N  0.76067292  0.66790892  0.83443580    -0.06420
N4          N  0.72477572  0.65733144  0.86635095    -0.60990
N5          N  0.80191430  0.68870919  0.86030946    -0.06020
N6          N  0.79469812  0.69163709  0.90991670    -0.58840
N7          N  0.79961324  0.74997713  0.75887084    -0.05700
N8          N  0.78597453  0.78100158  0.74549722    -0.61340
C9          C  0.82181176  0.82353617  0.76467601     0.95430
C10         C  0.74647435  0.67161439  0.91372853     0.95210
N11         N  0.74038869  0.57095319  0.71023018    -0.06930
N12         N  0.70991725  0.52394870  0.70833631    -0.59440
N13         N  0.76061025  0.67593338  0.66418520    -0.05050
N14         N  0.74103670  0.69582352  0.63591220    -0.60690
N15         N  0.77901593  0.65568315  0.63438546    -0.06960
N16         N  0.77242419  0.66186966  0.58502295    -0.59710
N17         N  0.72311396  0.59275514  0.73929442    -0.04690
N18         N  0.68075061  0.56133618  0.75722745    -0.60780
Mn19       Mn  0.75988456  0.67132412  0.74912669     1.18440
C20         C  0.67280476  0.51852953  0.73786636     0.97520
C21         C  0.74843431  0.68684337  0.58662689     0.98180
N22         N  0.90147143  0.69061017  0.85834492    -0.06980
N23         N  0.91540490  0.69430859  0.90722914    -0.63290
N24         N  0.95779127  0.75214392  0.75477097    -0.05780
N25         N  0.00173254  0.78344790  0.74055324    -0.63960
N26         N  0.93960725  0.77354886  0.78283527    -0.06480
N27         N  0.97076065  0.82004003  0.78818168    -0.63550
N28         N  0.92041898  0.66992782  0.83013971    -0.05380
N29         N  0.94810860  0.65981618  0.85942803    -0.64240
Mn30       Mn  0.87101142  0.73150024  0.82217262     1.10660
C31         C  0.94383079  0.67430045  0.90764353     0.98740
C32         C  0.00927831  0.82553998  0.76164131     0.98820
N33         N  0.88042687  0.65715217  0.63178836    -0.06490
N34         N  0.89123248  0.66254235  0.58205303    -0.61860
N35         N  0.88071726  0.59532974  0.73456099    -0.05810
N36         N  0.89449774  0.56493375  0.74972518    -0.58590
N37         N  0.84030912  0.57270314  0.70717412    -0.07120
N38         N  0.82551905  0.52612502  0.70374893    -0.61430
N39         N  0.92015589  0.67902177  0.66038694    -0.06110
N40         N  0.95839676  0.69977741  0.63106110    -0.58620
Mn41       Mn  0.80942130  0.61305327  0.66918435     1.20190
Mn42       Mn  0.92031821  0.67380088  0.74490493     1.10090
Cl43       Cl  0.83996169  0.67213488  0.74620006    -0.86590
C44         C  0.94008078  0.68916201  0.58237128     0.95750
C45         C  0.85985233  0.52200259  0.73031557     0.95540
N46         N  0.90532663  0.21187722  0.64606278    -0.06740
N47         N  0.92009979  0.21927465  0.59792519    -0.58860
N48         N  0.95972794  0.21088238  0.75587360    -0.06420
N49         N  0.00185549  0.22104987  0.77616171    -0.60990
N50         N  0.94034033  0.16972335  0.72985684    -0.06020
N51         N  0.96846285  0.15082905  0.73199196    -0.58840
N52         N  0.92442179  0.25290341  0.67250714    -0.05700
N53         N  0.95307693  0.28898816  0.64290000    -0.61340
C54         C  0.94956214  0.26742158  0.59635712     0.95430
C55         C  0.00654006  0.18282690  0.76134477     0.95210
N56         N  0.88335897  0.23591873  0.86863419    -0.06930
N57         N  0.89514097  0.24555458  0.91850465    -0.59440
N58         N  0.88310347  0.29240446  0.76041349    -0.05050
N59         N  0.89501578  0.33491642  0.74158361    -0.60690
N60         N  0.84327112  0.27566374  0.78694299    -0.06960
N61         N  0.82722466  0.30638134  0.78639311    -0.59710
N62         N  0.92252712  0.25275788  0.84104507    -0.04690
N63         N  0.96125926  0.27354451  0.87080704    -0.60780
Mn64       Mn  0.92311216  0.25329831  0.75730118     1.18440
C65         C  0.94410678  0.26911001  0.91888602     0.97520
C66         C  0.85956374  0.34306747  0.75770150     0.98180
N67         N  0.84245349  0.07374761  0.72387620    -0.06980
N68         N  0.85805671  0.04277609  0.72196922    -0.63290
N69         N  0.76368515  0.09491291  0.66490789    -0.05780
N70         N  0.72931158  0.06446378  0.63226536    -0.63960
N71         N  0.80554590  0.11481063  0.64174278    -0.06480
N72         N  0.80017869  0.09926701  0.59339565    -0.63550
N73         N  0.80116095  0.05531562  0.74764222    -0.05380
N74         N  0.78768555  0.01104556  0.76209250    -0.64240
Mn75       Mn  0.87348361  0.14261815  0.68490695     1.10660
C76         C  0.82373750  0.00373868  0.74583601     0.98740
C77         C  0.75274898  0.06781084  0.58766782     0.98820
N78         N  0.74461925  0.17865307  0.78355173    -0.06490
N79         N  0.71528808  0.19624055  0.78487698    -0.61860
N80         N  0.76236356  0.09529229  0.83648635    -0.05810
N81         N  0.74203572  0.05727029  0.86612089    -0.58590
N82         N  0.78170545  0.13533600  0.86494356    -0.07120
N83         N  0.77476748  0.12500960  0.91464125    -0.61430
N84         N  0.72545312  0.13838557  0.75558136    -0.06110
N85         N  0.68216393  0.12756841  0.73825163    -0.58620
Mn86       Mn  0.81273575  0.20665121  0.82767667     1.20190
Mn87       Mn  0.76171214  0.09512694  0.75105793     1.10090
Cl88       Cl  0.84252955  0.17446240  0.75513589    -0.86590
C89         C  0.67631463  0.16417518  0.75683582     0.95750
C90         C  0.75032722  0.07613297  0.91477445     0.95540
N91         N  0.13170637  0.77849841  0.36248826    -0.06560
N92         N  0.12099601  0.77485333  0.41226045    -0.58860
N93         N  0.13320601  0.71870355  0.25423166    -0.06420
N94         N  0.12153444  0.67550312  0.23570677    -0.60990
N95         N  0.17307851  0.73669005  0.28236222    -0.06020
N96         N  0.18946932  0.70625373  0.28332603    -0.58840
N97         N  0.09196550  0.75990418  0.33396966    -0.05700
N98         N  0.05376576  0.74355689  0.36329788    -0.61340
C99         C  0.07217535  0.75349631  0.41193750     0.95430
C100        C  0.15694680  0.66817782  0.25419530     0.95210
N101        N  0.10998118  0.79567970  0.13819171    -0.06930
N102        N  0.09713857  0.78623266  0.08881583    -0.59440
N103        N  0.05339357  0.79676072  0.24521710    -0.05050
N104        N  0.01012913  0.78426602  0.26228018    -0.60690
N105        N  0.07101003  0.83705790  0.21981080    -0.06960
N106        N  0.04004984  0.85278187  0.21885581    -0.59710
N107        N  0.09200470  0.75536386  0.16386366    -0.04690
N108        N  0.06614863  0.71796969  0.13241287    -0.60780
Mn109      Mn  0.09193338  0.75649130  0.24921127     1.18440
C110        C  0.07011136  0.73757399  0.08548847     0.97520
C111        C  0.00219029  0.81950104  0.24546836     0.98180
N112        N  0.27095986  0.83402439  0.28242891    -0.06980
N113        N  0.30099326  0.81710900  0.28308595    -0.63290
N114        N  0.25156986  0.91701640  0.33604832    -0.05780
N115        N  0.27243584  0.95566094  0.36670627    -0.63960
N116        N  0.23323278  0.87760220  0.36329343    -0.06480
N117        N  0.24152256  0.88872562  0.41326348    -0.63550
N118        N  0.28859020  0.87342991  0.25507277    -0.05380
N119        N  0.33118952  0.88430061  0.23705248    -0.64240
Mn120      Mn  0.20258543  0.80627085  0.32421994     1.10660
C121        C  0.33789815  0.84830445  0.25395385     0.98740
C122        C  0.26619512  0.93750635  0.41453401     0.98820
N123        N  0.16911097  0.93509583  0.22274931    -0.06490
N124        N  0.15186292  0.96479944  0.22537429    -0.61860
N125        N  0.24992825  0.91518034  0.16524556    -0.05810
N126        N  0.28535646  0.94334492  0.13432840    -0.58590
N127        N  0.20844338  0.89579877  0.13981096    -0.07120
N128        N  0.21503259  0.90983477  0.09154527    -0.61430
N129        N  0.21016165  0.95323516  0.24873817    -0.06110
N130        N  0.22163833  0.99553516  0.26967696    -0.58620
Mn131      Mn  0.13946803  0.86610763  0.17931977     1.20190
Mn132      Mn  0.25133712  0.91552215  0.25105512     1.10090
Cl133      Cl  0.17148651  0.83603817  0.25077203    -0.86590
C134        C  0.18468293  0.00208429  0.25529318     0.95750
C135        C  0.26305364  0.93899912  0.08803623     0.95540
N136        N  0.44323687  0.27191187  0.79138987    -0.06740
N137        N  0.49027405  0.30140743  0.79059900    -0.58860
N138        N  0.34114501  0.25140277  0.84371522    -0.06420
N139        N  0.32345653  0.27254426  0.87285991    -0.60990
N140        N  0.36325976  0.23436566  0.87215650    -0.06020
N141        N  0.36131251  0.24457036  0.92179618    -0.58840
N142        N  0.42068336  0.28935175  0.76423708    -0.05700
N143        N  0.45189039  0.33123455  0.74495210    -0.61340
C144        C  0.49516961  0.33802788  0.76111560     0.95430
C145        C  0.33601178  0.26837931  0.92142277     0.95210
N146        N  0.24037824  0.17026451  0.72979432    -0.06930
N147        N  0.19360221  0.15280036  0.72883031    -0.59440
N148        N  0.33985546  0.25132134  0.67418029    -0.05050
N149        N  0.34586219  0.28647514  0.64341352    -0.60690
N150        N  0.31854886  0.20991057  0.64846295    -0.06960
N151        N  0.31088241  0.21626417  0.59999654    -0.59710
N152        N  0.26229270  0.21146412  0.75575481    -0.04690
N153        N  0.23056071  0.22319722  0.77270898    -0.60780
Mn154      Mn  0.34143988  0.25214507  0.75946100     1.18440
C155        C  0.18777177  0.18607409  0.75531696     0.97520
C156        C  0.32829669  0.26411975  0.59676382     0.98180
N157        N  0.36265766  0.13192307  0.86987284    -0.06980
N158        N  0.36019885  0.12018219  0.91925141    -0.63290
N159        N  0.41943380  0.13356453  0.76011155    -0.05780
N160        N  0.45071879  0.12328955  0.73894945    -0.63960
N161        N  0.44185560  0.17359804  0.78831814    -0.06480
N162        N  0.48870426  0.19162610  0.78613611    -0.63550
N163        N  0.34060673  0.09259860  0.84042160    -0.05380
N164        N  0.32259308  0.05389396  0.86868554    -0.64240
Mn165      Mn  0.40366339  0.20334162  0.83256411     1.10660
C166        C  0.33497544  0.07115041  0.91768179     0.98740
C167        C  0.49397512  0.16019796  0.75506808     0.98820
N168        N  0.31744691  0.11150866  0.64561326    -0.06490
N169        N  0.30813274  0.09599523  0.59711784    -0.61860
N170        N  0.26160551  0.05475156  0.75218116    -0.05810
N171        N  0.22999270  0.01222926  0.76979936    -0.58590
N172        N  0.23953354  0.07335533  0.72658547    -0.07120
N173        N  0.19263660  0.04405226  0.72590011    -0.61430
N174        N  0.33915859  0.09178653  0.67011813    -0.06110
N175        N  0.34449467  0.06195497  0.63839326    -0.58620
Mn176      Mn  0.27908682  0.14137797  0.68725213     1.20190
Mn177      Mn  0.34060587  0.09231905  0.75568286     1.10090
Cl178      Cl  0.34161175  0.17249602  0.75904437    -0.86590
C179        C  0.32539193  0.06543129  0.59281906     0.95750
C180        C  0.18697275  0.00627045  0.75351506     0.95540
N181        N  0.07471571  0.23531539  0.22900037    -0.06740
N182        N  0.04522352  0.18846678  0.22819768    -0.58860
N183        N  0.09556351  0.33587221  0.17244419    -0.06420
N184        N  0.06988775  0.34584511  0.13990093    -0.60990
N185        N  0.11454290  0.31318604  0.14807484    -0.06020
N186        N  0.10240776  0.30758017  0.09867279    -0.58840
N187        N  0.05558746  0.25771192  0.25356326    -0.05700
N188        N  0.01223168  0.22617989  0.26980908    -0.61340
C189        C  0.00640503  0.18292467  0.25389499     0.95430
C190        C  0.07514474  0.32862098  0.09372081     0.95210
N191        N  0.17547900  0.43983297  0.28914282    -0.06930
N192        N  0.19294089  0.48676741  0.28690802    -0.59440
N193        N  0.09343089  0.33792779  0.34146474    -0.05050
N194        N  0.05459559  0.32012207  0.36963469    -0.60690
N195        N  0.13249668  0.36121824  0.37077448    -0.06960
N196        N  0.12042450  0.35990859  0.41991535    -0.59710
N197        N  0.13569855  0.41657661  0.26088261    -0.04690
N198        N  0.12525568  0.44726105  0.23903279    -0.60780
Mn199      Mn  0.09410878  0.33728094  0.25716203     1.18440
C200        C  0.16159498  0.49096269  0.25504969     0.97520
C201        C  0.07144108  0.33405664  0.41845384     0.98180
N202        N  0.21292230  0.31244440  0.15159903    -0.06980
N203        N  0.22119716  0.30547953  0.10330601    -0.63290
N204        N  0.21188950  0.25773371  0.26007057    -0.05780
N205        N  0.22433647  0.22698399  0.27773665    -0.63960
N206        N  0.17162553  0.23487251  0.23274442    -0.06480
N207        N  0.15573072  0.18818270  0.23120007    -0.63550
N208        N  0.25356409  0.33490858  0.17849137    -0.05380
N209        N  0.29027724  0.34324141  0.14887566    -0.64240
Mn210      Mn  0.14327881  0.27376154  0.18965004     1.10660
C211        C  0.26946988  0.32496025  0.10193948     0.98740
C212        C  0.18889910  0.18370232  0.25939252     0.98820
N213        N  0.23304661  0.36063851  0.37483469    -0.06490
N214        N  0.23908040  0.35689232  0.42502566    -0.61860
N215        N  0.29030996  0.41571264  0.26721351    -0.05810
N216        N  0.33230291  0.44568050  0.24736255    -0.58590
N217        N  0.27324267  0.43955645  0.29295212    -0.07120
N218        N  0.30331983  0.48641598  0.29059559    -0.61430
N219        N  0.25014519  0.33751638  0.34775890    -0.06110
N220        N  0.26757072  0.31736869  0.37834373    -0.58620
Mn221      Mn  0.20411403  0.40142710  0.33383382     1.20190
Mn222      Mn  0.25259694  0.33686245  0.26357857     1.10090
Cl223      Cl  0.17356361  0.33742368  0.26110301    -0.86590
C224        C  0.26037935  0.32940213  0.42621280     0.95750
C225        C  0.34005287  0.48969169  0.26199256     0.95540
N226        N  0.77229560  0.83766469  0.21454192    -0.06740
N227        N  0.81919352  0.85490445  0.21662862    -0.58860
N228        N  0.66882753  0.75659077  0.15749919    -0.06420
N229        N  0.65944793  0.71988937  0.12588225    -0.60990
N230        N  0.69099109  0.79730657  0.13250455    -0.06020
N231        N  0.69619724  0.78873675  0.08363528    -0.58840
N232        N  0.74982657  0.79711960  0.23947108    -0.05700
N233        N  0.78100662  0.78599830  0.25932053    -0.61340
C234        C  0.82425016  0.82270494  0.24523642     0.95430
C235        C  0.67594948  0.74034116  0.07958059     0.95210
N236        N  0.57111775  0.73854694  0.27641212    -0.06930
N237        N  0.52422736  0.70912652  0.27734200    -0.59440
N238        N  0.67586684  0.76013584  0.32769658    -0.05050
N239        N  0.69792539  0.74327581  0.35661479    -0.60690
N240        N  0.65509663  0.77846812  0.35662440    -0.06960
N241        N  0.66221323  0.77353513  0.40627081    -0.59710
N242        N  0.59188657  0.71971554  0.24830190    -0.04690
N243        N  0.55935433  0.67662044  0.23011214    -0.60780
Mn244      Mn  0.67106506  0.75703976  0.24296872     1.18440
C245        C  0.51715767  0.67077738  0.24805026     0.97520
C246        C  0.68957153  0.75193079  0.40555483     0.98180
N247        N  0.69422657  0.89795621  0.13368212    -0.06980
N248        N  0.70255620  0.91366689  0.08593214    -0.63290
N249        N  0.75082400  0.95468877  0.24278126    -0.05780
N250        N  0.78189697  0.99726631  0.26310963    -0.63960
N251        N  0.77333243  0.93619028  0.21734509    -0.06480
N252        N  0.82026316  0.96579469  0.22007729    -0.63550
N253        N  0.67194726  0.91675857  0.15929716    -0.05380
N254        N  0.66520097  0.94594766  0.12904394    -0.64240
Mn255      Mn  0.73303785  0.86732143  0.17375761     1.10660
C256        C  0.68339625  0.94268083  0.08297579     0.98740
C257        C  0.82522446  0.00371967  0.24908033     0.98820
N258        N  0.65398855  0.87888803  0.35776773    -0.06490
N259        N  0.65779961  0.89017357  0.40774315    -0.61860
N260        N  0.59292253  0.87511682  0.24946196    -0.05810
N261        N  0.56122773  0.88675834  0.23231547    -0.58590
N262        N  0.57151838  0.83608230  0.27737674    -0.07120
N263        N  0.52488407  0.82030184  0.27948755    -0.61430
N264        N  0.67492269  0.91823136  0.33039234    -0.06110
N265        N  0.69387101  0.95694319  0.36099346    -0.58620
Mn266      Mn  0.61227049  0.80760426  0.31866155     1.20190
Mn267      Mn  0.67208391  0.91686278  0.24525219     1.10090
Cl268      Cl  0.67188458  0.83714076  0.24498123    -0.86590
C269        C  0.68274943  0.93896819  0.40889683     0.95750
C270        C  0.51899686  0.85198604  0.25098084     0.95540
C271        C  0.91381209  0.04938483  0.24147962    -0.12890
C272        C  0.87201641  0.04857100  0.25849024     0.04110
C273        C  0.87578859  0.09159319  0.27921804    -0.08180
C274        C  0.92016061  0.13473323  0.27827309    -0.08920
C275        C  0.96132996  0.13591972  0.25832403    -0.03470
C276        C  0.95802711  0.09215227  0.24115035     0.03340
N277        N  0.99876719  0.09019444  0.22205937     0.65850
H278        H  0.91206653  0.01675819  0.22644246     0.14750
H279        H  0.92222942  0.16762361  0.29287327     0.14460
N280        N  0.83523462  0.09254639  0.30082394     0.73550
O281        O  0.01602571  0.06915595  0.24800036    -0.39900
O282        O  0.00974255  0.09886215  0.17513182    -0.39840
O283        O  0.81516570  0.06786005  0.33997721    -0.40540
O284        O  0.82543303  0.12440961  0.28729995    -0.40610
C285        C  0.38394372  0.57891062  0.25604968    -0.12890
C286        C  0.38461385  0.53553552  0.25155733     0.04110
C287        C  0.42858035  0.53722184  0.24046741    -0.08180
C288        C  0.47093197  0.58178727  0.23724448    -0.08920
C289        C  0.47062694  0.62510279  0.24437544    -0.03470
C290        C  0.42625219  0.62345321  0.25218576     0.03340
N291        N  0.42330068  0.66650796  0.25576919     0.65850
H292        H  0.35048158  0.57835342  0.26350733     0.14750
H293        H  0.50457284  0.58234713  0.23096180     0.14460
N294        N  0.43164561  0.49429961  0.23533467     0.73550
O295        O  0.40614914  0.67793127  0.21801188    -0.39900
O296        O  0.42760242  0.68666081  0.29941706    -0.39840
O297        O  0.41713472  0.46928241  0.19395513    -0.40540
O298        O  0.45691946  0.48667730  0.26732471    -0.40610
C299        C  0.28548258  0.25160743  0.51327166    -0.12890
C300        C  0.31511997  0.28445926  0.55231786     0.04110
C301        C  0.32547230  0.33292373  0.55039020    -0.08180
C302        C  0.30400454  0.34626677  0.51097716    -0.08920
C303        C  0.27406195  0.31281184  0.47270538    -0.03470
C304        C  0.26448962  0.26483950  0.47412782     0.03340
N305        N  0.23262854  0.22874897  0.43680748     0.65850
H306        H  0.27678472  0.21433927  0.51400587     0.14750
H307        H  0.31299991  0.38355278  0.50835096     0.14460
N308        N  0.35910158  0.36932656  0.58605409     0.73550
O309        O  0.23978721  0.19485756  0.42306152    -0.39900
O310        O  0.19445155  0.22756518  0.42182205    -0.39840
O311        O  0.39944405  0.37265473  0.59500729    -0.40540
O312        O  0.35237300  0.40317188  0.60109679    -0.40610
C313        C  0.27527126  0.31870634  0.00798224    -0.12890
C314        C  0.29328892  0.31739281  0.05694694     0.04110
C315        C  0.32915513  0.30402473  0.06113278    -0.08180
C316        C  0.34376774  0.28956429  0.01627200    -0.08920
C317        C  0.32374499  0.28857363  0.96737421    -0.03470
C318        C  0.29057032  0.30558024  0.96337931     0.03340
N319        N  0.27125529  0.30934895  0.91463018     0.65850
H320        H  0.24851756  0.32982613  0.00426258     0.14750
H321        H  0.36971262  0.27745436  0.01997398     0.14460
N322        N  0.34900952  0.30198425  0.11034025     0.73550
O323        O  0.22621228  0.28772956  0.90730298    -0.39900
O324        O  0.29787775  0.34245961  0.88454938    -0.39840
O325        O  0.32153713  0.27682657  0.14573538    -0.40540
O326        O  0.39374087  0.31822124  0.11536834    -0.40610
C327        C  0.32945555  0.01414332  0.04893466    -0.12890
C328        C  0.28519343  0.97082965  0.04314514     0.04110
C329        C  0.25957695  0.96092448  0.99562820    -0.08180
C330        C  0.27682716  0.99470689  0.95661479    -0.08920
C331        C  0.32025640  0.03849507  0.96241978    -0.03470
C332        C  0.34783623  0.04783864  0.00876642     0.03340
N333        N  0.39488104  0.08970672  0.01502789     0.65850
H334        H  0.34980762  0.02185986  0.08493558     0.14750
H335        H  0.25565657  0.98633693  0.92107997     0.14460
N336        N  0.21569619  0.91653707  0.98608487     0.73550
O337        O  0.41015803  0.10858707  0.05943487    -0.39900
O338        O  0.42398071  0.10312805  0.97811873    -0.39840
O339        O  0.17667775  0.91663030  0.97962398    -0.40540
O340        O  0.21680999  0.87813510  0.97814314    -0.40610
C341        C  0.24846880  0.97440467  0.48846576    -0.12890
C342        C  0.28257705  0.96771312  0.46200675     0.04110
C343        C  0.33101788  0.99095136  0.48048626    -0.08180
C344        C  0.34382903  0.02116190  0.52502549    -0.08920
C345        C  0.30989245  0.02926111  0.55018896    -0.03470
C346        C  0.26132754  0.00455502  0.53250250     0.03340
N347        N  0.22443259  0.00874164  0.55939954     0.65850
H348        H  0.21135397  0.95586247  0.47466973     0.14750
H349        H  0.38089176  0.04009992  0.53891689     0.14460
N350        N  0.36745810  0.98459370  0.45512410     0.73550
O351        O  0.19072563  0.00920552  0.53427337    -0.39900
O352        O  0.22193785  0.00569194  0.60804059    -0.39840
O353        O  0.36539556  0.97653191  0.40694172    -0.40540
O354        O  0.40401283  0.99060775  0.48040337    -0.40610
C355        C  0.22841106  0.09033329  0.27061628    -0.12890
C356        C  0.18412834  0.04743832  0.26442455     0.04110
C357        C  0.14121343  0.04955931  0.26113259    -0.08180
C358        C  0.14403006  0.09464976  0.26040371    -0.08920
C359        C  0.18852891  0.13762373  0.26390301    -0.03470
C360        C  0.23124210  0.13536076  0.26946079     0.03340
N361        N  0.27792175  0.17783458  0.26915604     0.65850
H362        H  0.26146629  0.08907974  0.27246109     0.14750
H363        H  0.11122763  0.09619080  0.25737843     0.14460
N364        N  0.09468496  0.00662893  0.25935261     0.73550
O365        O  0.31038356  0.18210247  0.30038434    -0.39900
O366        O  0.28949391  0.20585319  0.23151261    -0.39840
O367        O  0.08558708  0.97269446  0.28960015    -0.40540
O368        O  0.06083317  0.00504921  0.23250004    -0.40610
C369        C  0.11839786  0.53546411  0.23888388    -0.12890
C370        C  0.16252140  0.53686472  0.24590053     0.04110
C371        C  0.20544242  0.58201173  0.25023974    -0.08180
C372        C  0.20243188  0.62427510  0.25213624    -0.08920
C373        C  0.15790031  0.62264233  0.24835889    -0.03470
C374        C  0.11544246  0.57760132  0.24077218     0.03340
N375        N  0.06870893  0.57329653  0.23944551     0.65850
H376        H  0.08531886  0.50107009  0.23580448     0.14750
H377        H  0.23522734  0.65884907  0.25618947     0.14460
N378        N  0.25207174  0.58568796  0.25148279     0.73550
O379        O  0.03792225  0.54621480  0.20567933    -0.39900
O380        O  0.05519200  0.58852422  0.27747755    -0.39840
O381        O  0.26021919  0.55837385  0.22276083    -0.40540
O382        O  0.28694302  0.62046919  0.27539370    -0.40610
C383        C  0.43612005  0.82045732  0.21664375    -0.12890
C384        C  0.47390761  0.85342044  0.24919927     0.04110
C385        C  0.46650414  0.88393728  0.28329244    -0.08180
C386        C  0.42157542  0.88130907  0.28314211    -0.08920
C387        C  0.38378622  0.84862477  0.25053766    -0.03470
C388        C  0.39066662  0.81728089  0.21685757     0.03340
N389        N  0.35282164  0.78262309  0.18271827     0.65850
H390        H  0.44194154  0.79636203  0.19172214     0.14750
H391        H  0.41583080  0.90478044  0.30918368     0.14460
N392        N  0.50307349  0.91601916  0.31992552     0.73550
O393        O  0.36307691  0.76548868  0.14367267    -0.39900
O394        O  0.30903016  0.76658002  0.19276392    -0.39840
O395        O  0.54627889  0.94125479  0.30652365    -0.40540
O396        O  0.49141972  0.92276374  0.36452187    -0.40610
C397        C  0.86981296  0.78038177  0.26135262    -0.12890
C398        C  0.87055729  0.82400412  0.25374368     0.04110
C399        C  0.91527803  0.86676055  0.24835570    -0.08180
C400        C  0.95752939  0.86403707  0.24635968    -0.08920
C401        C  0.95652069  0.81994935  0.25092082    -0.03470
C402        C  0.91203787  0.77765864  0.25929934     0.03340
N403        N  0.90818263  0.73115913  0.26160699     0.65850
H404        H  0.83572476  0.74736033  0.26526511     0.14750
H405        H  0.99162821  0.89684813  0.24158050     0.14460
N406        N  0.91861996  0.91312451  0.24577779     0.73550
O407        O  0.88340216  0.70251589  0.29638574    -0.39900
O408        O  0.92087784  0.71522240  0.22348973    -0.39840
O409        O  0.89591804  0.92453772  0.27733726    -0.40540
O410        O  0.94919678  0.94501575  0.21706007    -0.40610
C411        C  0.00151488  0.32203460  0.05156562    -0.12890
C412        C  0.04473672  0.32098887  0.04726494     0.04110
C413        C  0.05506538  0.30580714  0.00004796    -0.08180
C414        C  0.02098493  0.28863298  0.95994638    -0.08920
C415        C  0.97694334  0.28770677  0.96447700    -0.03470
C416        C  0.96771645  0.30642916  0.01020078     0.03340
N417        N  0.92587563  0.31169957  0.01466105     0.65850
H418        H  0.99378289  0.33459524  0.08744811     0.14750
H419        H  0.02937077  0.27599151  0.92454219     0.14460
N420        N  0.09991823  0.30717596  0.99222298     0.73550
O421        O  0.90721126  0.30856846  0.05827657    -0.39900
O422        O  0.91243825  0.32724309  0.97721368    -0.39840
O423        O  0.10039846  0.26918072  0.97966745    -0.40540
O424        O  0.13897719  0.34679059  0.99524902    -0.40610
C425        C  0.96052955  0.27830726  0.50274031    -0.12890
C426        C  0.98128842  0.29049760  0.55236942     0.04110
C427        C  0.03177453  0.32056351  0.55822133    -0.08180
C428        C  0.06024763  0.33619720  0.51386604    -0.08920
C429        C  0.03960254  0.32229370  0.46393279    -0.03470
C430        C  0.98866006  0.29460937  0.45863129     0.03340
N431        N  0.96450875  0.28280576  0.40909183     0.65850
H432        H  0.92178745  0.25592520  0.49819240     0.14750
H433        H  0.09901574  0.35746815  0.51860540     0.14460
N434        N  0.05516901  0.33277371  0.60830237     0.73550
O435        O  0.93265877  0.23983819  0.39831405    -0.39900
O436        O  0.96747486  0.31612485  0.38121312    -0.39840
O437        O  0.04578235  0.30026782  0.64061976    -0.40540
O438        O  0.09064944  0.37438342  0.61707214    -0.40610
C439        C  0.68411698  0.00771706  0.96041951    -0.12890
C440        C  0.73199322  0.04607829  0.96135839     0.04110
C441        C  0.76231938  0.05121818  0.00382709    -0.08180
C442        C  0.74459212  0.01720843  0.04313182    -0.08920
C443        C  0.69704610  0.97855001  0.04189308    -0.03470
C444        C  0.66589041  0.97381515  0.00023809     0.03340
N445        N  0.61661958  0.93484637  0.99672270     0.65850
H446        H  0.66108327  0.00352506  0.92748233     0.14750
H447        H  0.76849412  0.02064483  0.07491817     0.14460
N448        N  0.81191354  0.08855120  0.00615910     0.73550
O449        O  0.58651624  0.93814115  0.96776622    -0.39900
O450        O  0.60319818  0.89612482  0.02031902    -0.39840
O451        O  0.82278007  0.13218924  0.00519773    -0.40540
O452        O  0.84401861  0.07843932  0.01831871    -0.40610
C453        C  0.68562164  0.01447453  0.52594072    -0.12890
C454        C  0.73308991  0.03219656  0.54389971     0.04110
C455        C  0.76227505  0.01664717  0.51867221    -0.08180
C456        C  0.74442001  0.98634921  0.47480508    -0.08920
C457        C  0.69758849  0.96951419  0.45619815    -0.03470
C458        C  0.66733122  0.98343544  0.48189811     0.03340
N459        N  0.61887666  0.96756676  0.46368559     0.65850
H460        H  0.66334351  0.02630756  0.54528034     0.14750
H461        H  0.76713077  0.97498822  0.45548323     0.14460
N462        N  0.80930651  0.02934853  0.53826940     0.73550
O463        O  0.58853061  0.96828292  0.49397749    -0.39900
O464        O  0.60691944  0.95607030  0.41669765    -0.39840
O465        O  0.81464562  0.02068830  0.58458608    -0.40540
O466        O  0.84367780  0.04165317  0.50749533    -0.40610
C467        C  0.05954133  0.15509734  0.72633030    -0.12890
C468        C  0.05143084  0.18073481  0.76559500     0.04110
C469        C  0.08795808  0.20700680  0.80338211    -0.08180
C470        C  0.13260017  0.20882727  0.79903218    -0.08920
C471        C  0.14097889  0.18438298  0.75844342    -0.03470
C472        C  0.10384468  0.15745118  0.72150144     0.03340
N473        N  0.11137880  0.13547424  0.67636790     0.65850
H474        H  0.03227966  0.13553852  0.69656943     0.14750
H475        H  0.16056398  0.22854446  0.82804886     0.14460
N476        N  0.07993185  0.23039186  0.84696447     0.73550
O477        O  0.07961967  0.09350730  0.66192942    -0.39900
O478        O  0.14426540  0.16113343  0.64552079    -0.39840
O479        O  0.04043687  0.20954712  0.87025803    -0.40540
O480        O  0.11436535  0.26853135  0.86666904    -0.40610
C481        C  0.58078916  0.20071872  0.77383475    -0.12890
C482        C  0.54127568  0.16346378  0.74706856     0.04110
C483        C  0.54748698  0.12842505  0.71956993    -0.08180
C484        C  0.59218565  0.13013913  0.72263316    -0.08920
C485        C  0.63087082  0.16586752  0.75253269    -0.03470
C486        C  0.62461969  0.20172602  0.77841145     0.03340
N487        N  0.66035990  0.23765268  0.81272389     0.65850
H488        H  0.57681241  0.22795218  0.79503321     0.14750
H489        H  0.59647400  0.10294583  0.70177935     0.14460
N490        N  0.50929523  0.09095483  0.68873371     0.73550
O491        O  0.66723782  0.27999377  0.81162705    -0.39900
O492        O  0.67233249  0.22453748  0.85330214    -0.39840
O493        O  0.48840989  0.10161080  0.65412235    -0.40540
O494        O  0.50204269  0.04846157  0.68994721    -0.40610
C495        C  0.96063765  0.66216146  0.99842288    -0.12890
C496        C  0.97814924  0.68351471  0.95069768     0.04110
C497        C  0.02770354  0.71725025  0.94626228    -0.08180
C498        C  0.05784557  0.73101245  0.99040564    -0.08920
C499        C  0.03996289  0.71182314  0.03896635    -0.03470
C500        C  0.99119597  0.67487214  0.04231962     0.03340
N501        N  0.97150741  0.65142132  0.09006327     0.65850
H502        H  0.92277693  0.63577386  0.00168146     0.14750
H503        H  0.09508069  0.75923503  0.98735491     0.14460
N504        N  0.04755835  0.74040362  0.89833500     0.73550
O505        O  0.93119160  0.64499310  0.10433134    -0.39900
O506        O  0.98906262  0.62854622  0.11191459    -0.39840
O507        O  0.02734205  0.75872812  0.87257292    -0.40540
O508        O  0.08868074  0.74826640  0.88532822    -0.40610
C509        C  0.00309653  0.75399578  0.53095794    -0.12890
C510        C  0.97102961  0.70448777  0.53627982     0.04110
C511        C  0.97443329  0.67131073  0.50217860    -0.08180
C512        C  0.00932735  0.68881910  0.46342853    -0.08920
C513        C  0.04126925  0.73832319  0.45800279    -0.03470
C514        C  0.03798841  0.77154789  0.49212160     0.03340
N515        N  0.06808236  0.82284973  0.48706918     0.65850
H516        H  0.00120746  0.77929566  0.55785410     0.14750
H517        H  0.01126354  0.66343893  0.43666866     0.14460
N518        N  0.94468284  0.62004795  0.50740346     0.73550
O519        O  0.05271028  0.85074713  0.50051902    -0.39900
O520        O  0.11138288  0.84090980  0.47383614    -0.39840
O521        O  0.90012339  0.60139352  0.51483553    -0.40540
O522        O  0.96166701  0.59272679  0.49782056    -0.40610
C523        C  0.86135131  0.90815659  0.73931921    -0.12890
C524        C  0.82199270  0.86932168  0.76193745     0.04110
C525        C  0.78325434  0.87449208  0.77986466    -0.08180
C526        C  0.78480251  0.91871467  0.77378541    -0.08920
C527        C  0.82389999  0.95768329  0.75027197    -0.03470
C528        C  0.86235959  0.95181128  0.73217161     0.03340
N529        N  0.90184975  0.98873743  0.70474854     0.65850
H530        H  0.89072995  0.90384545  0.72504164     0.14750
H531        H  0.75543115  0.92285291  0.78826238     0.14460
N532        N  0.74315332  0.83619494  0.80581279     0.73550
O533        O  0.94443941  0.00282470  0.72002159    -0.39900
O534        O  0.89471535  0.99876348  0.65968062    -0.39840
O535        O  0.74951319  0.80909278  0.83582745    -0.40540
O536        O  0.70224822  0.83289867  0.80359470    -0.40610
C537        C  0.81814758  0.43559107  0.75115577    -0.12890
C538        C  0.86028783  0.47655570  0.73615568     0.04110
C539        C  0.90181820  0.47320613  0.72649037    -0.08180
C540        C  0.90020291  0.42893075  0.73169816    -0.08920
C541        C  0.85834955  0.38803994  0.74820131    -0.03470
C542        C  0.81696696  0.39175472  0.75774298     0.03340
N543        N  0.77358398  0.35165897  0.77508233     0.65850
H544        H  0.78606599  0.43780829  0.75863177     0.14750
H545        H  0.93244770  0.42703799  0.72431477     0.14460
N546        N  0.94553469  0.51398894  0.71020589     0.73550
O547        O  0.75934339  0.35255957  0.82022199    -0.39900
O548        O  0.74901993  0.31586915  0.74510069    -0.39840
O549        O  0.97133666  0.54708898  0.74260589    -0.40540
O550        O  0.96300100  0.51214462  0.66722334    -0.40610
C551        C  0.05360767  0.91272406  0.74646146    -0.12890
C552        C  0.05498118  0.87123045  0.75960565     0.04110
C553        C  0.09930904  0.87495889  0.77411143    -0.08180
C554        C  0.14127927  0.91995845  0.77407770    -0.08920
C555        C  0.14042885  0.96138312  0.75913920    -0.03470
C556        C  0.09569530  0.95782466  0.74609964     0.03340
N557        N  0.09189434  0.99928269  0.73348461     0.65850
H558        H  0.01935877  0.91006223  0.73679864     0.14750
H559        H  0.17513095  0.92210769  0.78445792     0.14460
N560        N  0.10249205  0.83425941  0.79116326     0.73550
O561        O  0.06463871  0.99672684  0.69653552    -0.39900
O562        O  0.10868011  0.03515892  0.76441611    -0.39840
O563        O  0.09136276  0.79908570  0.76043109    -0.40540
O564        O  0.12663763  0.83838668  0.83169408    -0.40610
C565        C  0.54075685  0.42640159  0.75567776    -0.12890
C566        C  0.54121634  0.38293325  0.75316160     0.04110
C567        C  0.58548429  0.38393324  0.74596645    -0.08180
C568        C  0.62802534  0.42871155  0.74148917    -0.08920
C569        C  0.62749526  0.47226888  0.74479845    -0.03470
C570        C  0.58316884  0.47075980  0.75266809     0.03340
N571        N  0.58015141  0.51376074  0.75714308     0.65850
H572        H  0.50719193  0.42609278  0.76185961     0.14750
H573        H  0.66178567  0.42954324  0.73501470     0.14460
N574        N  0.58788229  0.34034316  0.74136639     0.73550
O575        O  0.55573084  0.52148078  0.72410074    -0.39900
O576        O  0.59186053  0.53738848  0.79949448    -0.39840
O577        O  0.55584942  0.30431791  0.71607322    -0.40540
O578        O  0.62506003  0.33979270  0.75686302    -0.40610
C579        C  0.75650943  0.71348819  0.99766107    -0.12890
C580        C  0.72451149  0.68023105  0.96033774     0.04110
C581        C  0.67434810  0.66231973  0.96572010    -0.08180
C582        C  0.65848605  0.68177456  0.00543460    -0.08920
C583        C  0.69155126  0.71793984  0.03962337    -0.03470
C584        C  0.74077107  0.73278276  0.03629354     0.03340
N585        N  0.77568656  0.76843366  0.07138280     0.65850
H586        H  0.79489260  0.72715986  0.99541966     0.14750
H587        H  0.62039858  0.66900018  0.00948660     0.14460
N588        N  0.63936007  0.62422105  0.93243684     0.73550
O589        O  0.79769254  0.75653680  0.10328174    -0.39900
O590        O  0.79173423  0.81250920  0.06298135    -0.39840
O591        O  0.64519876  0.58939214  0.91918175    -0.40540
O592        O  0.59935938  0.62143702  0.92277740    -0.40610
C593        C  0.76207333  0.71845668  0.49718262    -0.12890
C594        C  0.73252263  0.70287845  0.54050422     0.04110
C595        C  0.68850335  0.70321861  0.53892716    -0.08180
C596        C  0.67577760  0.72010299  0.49506315    -0.08920
C597        C  0.70551339  0.73607128  0.45186917    -0.03470
C598        C  0.74907241  0.73472934  0.45304616     0.03340
N599        N  0.78145334  0.75116781  0.41062006     0.65850
H600        H  0.79583630  0.71835740  0.49768741     0.14750
H601        H  0.64177043  0.71969884  0.49437741     0.14460
N602        N  0.65475280  0.68367113  0.57989173     0.73550
O603        O  0.82352579  0.78629713  0.41771600    -0.39900
O604        O  0.77242711  0.72414673  0.37107709    -0.39840
O605        O  0.66191179  0.70792349  0.62130566    -0.40540
O606        O  0.61356080  0.64780507  0.57049575    -0.40610
loop_ 
_geom_bond_atom_site_label_1 
_geom_bond_atom_site_label_2 
_geom_bond_distance 
_geom_bond_site_symmetry_2 
_ccdc_geom_bond_type 
N1            N2   1.319       .  A
N1            N7   1.315       .  A
N1          Mn30   2.199       .  S
N2            C9   1.351       .  A
N3            N5   1.315       .  A
N3            N4   1.325       .  A
N3          Mn19   2.210       .  S
N4           C10   1.357       .  A
N5            N6   1.315       .  A
N5          Mn30   2.193       .  S
N6           C10   1.351       .  A
N7            N8   1.320       .  A
N7          Mn19   2.192       .  S
N8            C9   1.352       .  A
C9          C524   1.467       .  S
C10         C580   1.490       .  S
N11          N17   1.317       .  A
N11          N12   1.324       .  A
N11         Mn41   2.225       .  S
N12          C20   1.357       .  A
N13          N14   1.320       .  A
N13          N15   1.317       .  A
N13         Mn19   2.202       .  S
N14          C21   1.350       .  A
N15          N16   1.326       .  A
N15         Mn41   2.232       .  S
N16          C21   1.359       .  A
N17          N18   1.317       .  A
N17         Mn19   2.191       .  S
N18          C20   1.350       .  A
Mn19        Cl43   2.556       .  S
C20         C569   1.484       .  S
C21         C594   1.489       .  S
N22          N23   1.320       .  A
N22          N28   1.316       .  A
N22         Mn30   2.202       .  S
N23          C31   1.351       .  A
N24          N26   1.314       .  A
N24          N25   1.318   1_655  A
N24         Mn42   2.184       .  S
N25          C32   1.350       .  A
N26          N27   1.319       .  A
N26         Mn30   2.194       .  S
N27          C32   1.352   1_655  A
N28          N29   1.323       .  A
N28         Mn42   2.209       .  S
N29          C31   1.354       .  A
Mn30        Cl43   2.533       .  S
C31         C496   1.476       .  S
C32         C552   1.468       .  S
N33          N34   1.326       .  A
N33          N39   1.317       .  A
N33         Mn41   2.233       .  S
N34          C44   1.359       .  A
N35          N36   1.318       .  A
N35          N37   1.317       .  A
N35         Mn42   2.188       .  S
N36          C45   1.349       .  A
N37          N38   1.322       .  A
N37         Mn41   2.218       .  S
N38          C45   1.355       .  A
N39          N40   1.319       .  A
N39         Mn42   2.194       .  S
N40          C44   1.348       .  A
Mn41        Cl43   2.548       .  S
Mn42        Cl43   2.550       .  S
C44         C510   1.483       .  S
C45         C538   1.473       .  S
N46          N47   1.318       .  A
N46          N52   1.315       .  A
N46         Mn75   2.192       .  S
N47          C54   1.350       .  A
N48          N50   1.312       .  A
N48          N49   1.322   1_655  A
N48         Mn64   2.195       .  S
N49          C55   1.356       .  A
N50          N51   1.314       .  A
N50         Mn75   2.183       .  S
N51          C55   1.351   1_655  A
N52          N53   1.322       .  A
N52         Mn64   2.192       .  S
N53          C54   1.352       .  A
C54         C426   1.474       .  S
C55         C468   1.477       .  S
N56          N62   1.315       .  A
N56          N57   1.327       .  A
N56         Mn86   2.221       .  S
N57          C65   1.360       .  A
N58          N59   1.321       .  A
N58          N60   1.316       .  A
N58         Mn64   2.196       .  S
N59          C66   1.354       .  A
N60          N61   1.319       .  A
N60         Mn86   2.212       .  S
N61          C66   1.354       .  A
N62          N63   1.311       .  A
N62         Mn64   2.165       .  S
N63          C65   1.344       .  A
Mn64        Cl88   2.557       .  S
C65         C415   1.477       .  S
C66         C541   1.485       .  S
N67          N68   1.316       .  A
N67          N73   1.313       .  A
N67         Mn75   2.185       .  S
N68          C76   1.349       .  A
N69          N71   1.318       .  A
N69          N70   1.327       .  A
N69         Mn87   2.228       .  S
N70          C77   1.358       .  A
N71          N72   1.315       .  A
N71         Mn75   2.184       .  S
N72          C77   1.346       .  A
N73          N74   1.322       .  A
N73         Mn87   2.201       .  S
N74          C76   1.357       .  A
Mn75        Cl88   2.510       .  S
C76         C527   1.485   1_545  S
C77         C454   1.485       .  S
N78          N79   1.316       .  A
N78          N84   1.317       .  A
N78         Mn86   2.200       .  S
N79          C89   1.349       .  A
N80          N81   1.320       .  A
N80          N82   1.318       .  A
N80         Mn87   2.208       .  S
N81          C90   1.351       .  A
N82          N83   1.325       .  A
N82         Mn86   2.227       .  S
N83          C90   1.357       .  A
N84          N85   1.323       .  A
N84         Mn87   2.212       .  S
N85          C89   1.358       .  A
Mn86        Cl88   2.538       .  S
Mn87        Cl88   2.568       .  S
C89         C485   1.488       .  S
C90         C440   1.486       .  S
N91          N92   1.326       .  A
N91          N97   1.316       .  A
N91        Mn120   2.232       .  S
N92          C99   1.360       .  A
N93          N95   1.315       .  A
N93          N94   1.320       .  A
N93        Mn109   2.199       .  S
N94         C100   1.354       .  A
N95          N96   1.319       .  A
N95        Mn120   2.198       .  S
N96         C100   1.352       .  A
N97          N98   1.318       .  A
N97        Mn109   2.192       .  S
N98          C99   1.348       .  A
C99         C513   1.481       .  S
C100        C373   1.480       .  S
N101        N107   1.317       .  A
N101        N102   1.320       .  A
N101       Mn131   2.211       .  S
N102        C110   1.354       .  A
N103        N104   1.319       .  A
N103        N105   1.313       .  A
N103       Mn109   2.190       .  S
N104        C111   1.353       .  A
N105        N106   1.319       .  A
N105       Mn131   2.193       .  S
N106        C111   1.353       .  A
N107        N108   1.322       .  A
N107       Mn109   2.206       .  S
N108        C110   1.353       .  A
Mn109      Cl133   2.551       .  S
C110        C499   1.487       .  S
C111        C401   1.479   1_455  S
N112        N113   1.320       .  A
N112        N118   1.318       .  A
N112       Mn120   2.211       .  S
N113        C121   1.351       .  A
N114        N116   1.316       .  A
N114        N115   1.319       .  A
N114       Mn132   2.196       .  S
N115        C122   1.349       .  A
N116        N117   1.323       .  A
N116       Mn120   2.207       .  S
N117        C122   1.354       .  A
N118        N119   1.321       .  A
N118       Mn132   2.206       .  S
N119        C121   1.353       .  A
Mn120      Cl133   2.547       .  S
C121        C387   1.469       .  S
C122        C342   1.469       .  S
N123        N124   1.319       .  A
N123        N129   1.315       .  A
N123       Mn131   2.202       .  S
N124        C134   1.354   1_565  A
N125        N126   1.327       .  A
N125        N127   1.317       .  A
N125       Mn132   2.218       .  S
N126        C135   1.357       .  A
N127        N128   1.316       .  A
N127       Mn131   2.193       .  S
N128        C135   1.349       .  A
N129        N130   1.319       .  A
N129       Mn132   2.191       .  S
N130        C134   1.353   1_565  A
Mn131      Cl133   2.531       .  S
Mn132      Cl133   2.555       .  S
C134        C356   1.477       .  S
C135        C328   1.491       .  S
N136        N137   1.321       .  A
N136        N142   1.317       .  A
N136       Mn165   2.211       .  S
N137        C144   1.353       .  A
N138        N140   1.316       .  A
N138        N139   1.312       .  A
N138       Mn154   2.178       .  S
N139        C145   1.344       .  A
N140        N141   1.328       .  A
N140       Mn165   2.233       .  S
N141        C145   1.363       .  A
N142        N143   1.319       .  A
N142       Mn154   2.204       .  S
N143        C144   1.354       .  A
C144        C566   1.479       .  S
C145        C317   1.490       .  S
N146        N152   1.312       .  A
N146        N147   1.313       .  A
N146       Mn176   2.177       .  S
N147        C155   1.348       .  A
N148        N149   1.325       .  A
N148        N150   1.314       .  A
N148       Mn154   2.204       .  S
N149        C156   1.357       .  A
N150        N151   1.313       .  A
N150       Mn176   2.179       .  S
N151        C156   1.349       .  A
N152        N153   1.324       .  A
N152       Mn154   2.199       .  S
N153        C155   1.357       .  A
Mn154      Cl178   2.554       .  S
C155        C471   1.477       .  S
C156        C300   1.488       .  S
N157        N158   1.329       .  A
N157        N163   1.317       .  A
N157       Mn165   2.233       .  S
N158        C166   1.361       .  A
N159        N161   1.316       .  A
N159        N160   1.321       .  A
N159       Mn177   2.191       .  S
N160        C167   1.353       .  A
N161        N162   1.315       .  A
N161       Mn165   2.206       .  S
N162        C167   1.353       .  A
N163        N164   1.315       .  A
N163       Mn177   2.190       .  S
N164        C166   1.347       .  A
Mn165      Cl178   2.541       .  S
C166        C331   1.487       .  S
C167        C482   1.484       .  S
N168        N169   1.316       .  A
N168        N174   1.315       .  A
N168       Mn176   2.179       .  S
N169        C179   1.347       .  A
N170        N171   1.320       .  A
N170        N172   1.312       .  A
N170       Mn177   2.196       .  S
N171        C180   1.357       .  A
N172        N173   1.316       .  A
N172       Mn176   2.175       .  S
N173        C180   1.349       .  A
N174        N175   1.324       .  A
N174       Mn177   2.211       .  S
N175        C179   1.355       .  A
Mn176      Cl178   2.517       .  S
Mn177      Cl178   2.553       .  S
C179        C345   1.475       .  S
C180        C555   1.478   1_545  S
N181        N182   1.315       .  A
N181        N187   1.313       .  A
N181       Mn210   2.182       .  S
N182        C189   1.349       .  A
N183        N185   1.314       .  A
N183        N184   1.322       .  A
N183       Mn199   2.191       .  S
N184        C190   1.353       .  A
N185        N186   1.315       .  A
N185       Mn210   2.189       .  S
N186        C190   1.351       .  A
N187        N188   1.323       .  A
N187       Mn199   2.209       .  S
N188        C189   1.359       .  A
C189        C275   1.485   1_455  S
C190        C412   1.478       .  S
N191        N197   1.316       .  A
N191        N192   1.319       .  A
N191       Mn221   2.202       .  S
N192        C200   1.353       .  A
N193        N194   1.314       .  A
N193        N195   1.316       .  A
N193       Mn199   2.179       .  S
N194        C201   1.346       .  A
N195        N196   1.326       .  A
N195       Mn221   2.229       .  S
N196        C201   1.361       .  A
N197        N198   1.320       .  A
N197       Mn199   2.202       .  S
N198        C200   1.354       .  A
Mn199      Cl223   2.546       .  S
C200        C370   1.479       .  S
C201        C429   1.489       .  S
N202        N203   1.317       .  A
N202        N208   1.315       .  A
N202       Mn210   2.192       .  S
N203        C211   1.350       .  A
N204        N206   1.313       .  A
N204        N205   1.320       .  A
N204       Mn222   2.197       .  S
N205        C212   1.354       .  A
N206        N207   1.317       .  A
N206       Mn210   2.186       .  S
N207        C212   1.351       .  A
N208        N209   1.323       .  A
N208       Mn222   2.200       .  S
N209        C211   1.353       .  A
Mn210      Cl223   2.526       .  S
C211        C314   1.478       .  S
C212        C359   1.477       .  S
N213        N214   1.326       .  A
N213        N219   1.317       .  A
N213       Mn221   2.221       .  S
N214        C224   1.358       .  A
N215        N216   1.317       .  A
N215        N217   1.316       .  A
N215       Mn222   2.189       .  S
N216        C225   1.350       .  A
N217        N218   1.322       .  A
N217       Mn221   2.214       .  S
N218        C225   1.356       .  A
N219        N220   1.313       .  A
N219       Mn222   2.178       .  S
N220        C224   1.345       .  A
Mn221      Cl223   2.556       .  S
Mn222      Cl223   2.543       .  S
C224        C303   1.471       .  S
C225        C286   1.482       .  S
N226        N227   1.318       .  A
N226        N232   1.313       .  A
N226       Mn255   2.192       .  S
N227        C234   1.352       .  A
N228        N230   1.317       .  A
N228        N229   1.323       .  A
N228       Mn244   2.209       .  S
N229        C235   1.354       .  A
N230        N231   1.318       .  A
N230       Mn255   2.205       .  S
N231        C235   1.351       .  A
N232        N233   1.320       .  A
N232       Mn244   2.192       .  S
N233        C234   1.354       .  A
C234        C398   1.479       .  S
C235        C583   1.474       .  S
N236        N242   1.315       .  A
N236        N237   1.317       .  A
N236       Mn266   2.193       .  S
N237        C245   1.350       .  A
N238        N239   1.318       .  A
N238        N240   1.316       .  A
N238       Mn244   2.191       .  S
N239        C246   1.348       .  A
N240        N241   1.327       .  A
N240       Mn266   2.238       .  S
N241        C246   1.362       .  A
N242        N243   1.322       .  A
N242       Mn244   2.208       .  S
N243        C245   1.357       .  A
Mn244      Cl268   2.553       .  S
C245        C289   1.480       .  S
C246        C597   1.491       .  S
N247        N248   1.319       .  A
N247        N253   1.317       .  A
N247       Mn255   2.195       .  S
N248        C256   1.349       .  A
N249        N251   1.314       .  A
N249        N250   1.319       .  A
N249       Mn267   2.190       .  S
N250        C257   1.352   1_565  A
N251        N252   1.319       .  A
N251       Mn255   2.203       .  S
N252        C257   1.356   1_565  A
N253        N254   1.325       .  A
N253       Mn267   2.222       .  S
N254        C256   1.356       .  A
Mn255      Cl268   2.529       .  S
C256        C443   1.479       .  S
C257        C272   1.485       .  S
N258        N259   1.323       .  A
N258        N264   1.317       .  A
N258       Mn266   2.208       .  S
N259        C269   1.354       .  A
N260        N261   1.321       .  A
N260        N262   1.318       .  A
N260       Mn267   2.205       .  S
N261        C270   1.353       .  A
N262        N263   1.320       .  A
N262       Mn266   2.209       .  S
N263        C270   1.350       .  A
N264        N265   1.319       .  A
N264       Mn267   2.201       .  S
N265        C269   1.349       .  A
Mn266      Cl268   2.548       .  S
Mn267      Cl268   2.551       .  S
C269        C457   1.471       .  S
C270        C384   1.469       .  S
C271        C272   1.402       .  A
C271        C276   1.396       .  A
C271        H278   1.084       .  S
C272        C273   1.417       .  A
C273        C274   1.405       .  A
C273        N280   1.433       .  S
C274        C275   1.404       .  A
C274        H279   1.083       .  S
C275        C276   1.416       .  A
C276        N277   1.430       .  S
N277        O281   1.262   1_655  A
N277        O282   1.262   1_655  A
N280        O283   1.262       .  A
N280        O284   1.262       .  A
C285        C286   1.403       .  A
C285        C290   1.400       .  A
C285        H292   1.083       .  S
C286        C287   1.415       .  A
C287        C288   1.400       .  A
C287        N294   1.431       .  S
C288        C289   1.402       .  A
C288        H293   1.083       .  S
C289        C290   1.413       .  A
C290        N291   1.431       .  S
N291        O295   1.262       .  A
N291        O296   1.262       .  A
N294        O297   1.262       .  A
N294        O298   1.262       .  A
C299        C300   1.407       .  A
C299        C304   1.394       .  A
C299        H306   1.083       .  S
C300        C301   1.418       .  A
C301        C302   1.411       .  A
C301        N308   1.437       .  S
C302        C303   1.403       .  A
C302        H307   1.084       .  S
C303        C304   1.410       .  A
C304        N305   1.441       .  S
N305        O309   1.263       .  A
N305        O310   1.263       .  A
N308        O311   1.263       .  A
N308        O312   1.263       .  A
C313        C314   1.397       .  A
C313        C318   1.395   1_554  A
C313        H320   1.085       .  S
C314        C315   1.417       .  A
C315        C316   1.409       .  A
C315        N322   1.434       .  S
C316        C317   1.405   1_554  A
C316        H321   1.083       .  S
C317        C318   1.420       .  A
C318        N319   1.433       .  S
N319        O323   1.262       .  A
N319        O324   1.262       .  A
N322        O325   1.262       .  A
N322        O326   1.262       .  A
C327        C328   1.409   1_545  A
C327        C332   1.416       .  A
C327        H334   1.083       .  S
C328        C329   1.412   1_554  A
C329        C330   1.394       .  A
C329        N336   1.431       .  S
C330        C331   1.403   1_565  A
C330        H335   1.084       .  S
C331        C332   1.418   1_556  A
C332        N333   1.438       .  S
N333        O337   1.263       .  A
N333        O338   1.262   1_554  A
N336        O339   1.262       .  A
N336        O340   1.262       .  A
C341        C342   1.397       .  A
C341        C346   1.398   1_565  A
C341        H348   1.084       .  S
C342        C343   1.420       .  A
C343        C344   1.410   1_565  A
C343        N350   1.443       .  S
C344        C345   1.401       .  A
C344        H349   1.084       .  S
C345        C346   1.416       .  A
C346        N347   1.439       .  S
N347        O351   1.263       .  A
N347        O352   1.263       .  A
N350        O353   1.262       .  A
N350        O354   1.263       .  A
C355        C356   1.404       .  A
C355        C360   1.400       .  A
C355        H362   1.081       .  S
C356        C357   1.413       .  A
C357        C358   1.402       .  A
C357        N364   1.438       .  S
C358        C359   1.404       .  A
C358        H363   1.079       .  S
C359        C360   1.413       .  A
C360        N361   1.435       .  S
N361        O365   1.262       .  A
N361        O366   1.262       .  A
N364        O367   1.263   1_545  A
N364        O368   1.262       .  A
C369        C370   1.403       .  A
C369        C374   1.400       .  A
C369        H376   1.084       .  S
C370        C371   1.415       .  A
C371        C372   1.405       .  A
C371        N378   1.440       .  S
C372        C373   1.405       .  A
C372        H377   1.084       .  S
C373        C374   1.414       .  A
C374        N375   1.434       .  S
N375        O379   1.262       .  A
N375        O380   1.263       .  A
N378        O381   1.263       .  A
N378        O382   1.263       .  A
C383        C384   1.402       .  A
C383        C388   1.409       .  A
C383        H390   1.084       .  S
C384        C385   1.412       .  A
C385        C386   1.400       .  A
C385        N392   1.440       .  S
C386        C387   1.400       .  A
C386        H391   1.084       .  S
C387        C388   1.418       .  A
C388        N389   1.445       .  S
N389        O393   1.263       .  A
N389        O394   1.262       .  A
N392        O395   1.262       .  A
N392        O396   1.263       .  A
C397        C398   1.403       .  A
C397        C402   1.401       .  A
C397        H404   1.084       .  S
C398        C399   1.414       .  A
C399        C400   1.401       .  A
C399        N406   1.438       .  S
C400        C401   1.404       .  A
C400        H405   1.084       .  S
C401        C402   1.415       .  A
C402        N403   1.434       .  S
N403        O407   1.262       .  A
N403        O408   1.263       .  A
N406        O409   1.263       .  A
N406        O410   1.263       .  A
C411        C412   1.408       .  A
C411        C416   1.410   1_455  A
C411        H418   1.084   1_455  S
C412        C413   1.408       .  A
C413        C414   1.390   1_554  A
C413        N420   1.433   1_554  S
C414        C415   1.403   1_455  A
C414        H419   1.083       .  S
C415        C416   1.415   1_556  A
C416        N417   1.438       .  S
N417        O421   1.263       .  A
N417        O422   1.263   1_554  A
N420        O423   1.262       .  A
N420        O424   1.262       .  A
C425        C426   1.396       .  A
C425        C430   1.398       .  A
C425        H432   1.085       .  S
C426        C427   1.416   1_655  A
C427        C428   1.407       .  A
C427        N434   1.437       .  S
C428        C429   1.405       .  A
C428        H433   1.083       .  S
C429        C430   1.421   1_455  A
C430        N431   1.434       .  S
N431        O435   1.263       .  A
N431        O436   1.262       .  A
N434        O437   1.262       .  A
N434        O438   1.263       .  A
C439        C440   1.408       .  A
C439        C444   1.412   1_546  A
C439        H446   1.084       .  S
C440        C441   1.412   1_556  A
C441        C442   1.404       .  A
C441        N448   1.435       .  S
C442        C443   1.404   1_545  A
C442        H447   1.085       .  S
C443        C444   1.416       .  A
C444        N445   1.445   1_554  S
N445        O449   1.263       .  A
N445        O450   1.262   1_556  A
N448        O451   1.262       .  A
N448        O452   1.263       .  A
C453        C454   1.404       .  A
C453        C458   1.413   1_545  A
C453        H460   1.083       .  S
C454        C455   1.419       .  A
C455        C456   1.397   1_545  A
C455        N462   1.436       .  S
C456        C457   1.395       .  A
C456        H461   1.085       .  S
C457        C458   1.419       .  A
C458        N459   1.444       .  S
N459        O463   1.263       .  A
N459        O464   1.262       .  A
N462        O465   1.263       .  A
N462        O466   1.263       .  A
C467        C468   1.401       .  A
C467        C472   1.391       .  A
C467        H474   1.083       .  S
C468        C469   1.415       .  A
C469        C470   1.409       .  A
C469        N476   1.437       .  S
C470        C471   1.405       .  A
C470        H475   1.083       .  S
C471        C472   1.415       .  A
C472        N473   1.436       .  S
N473        O477   1.262       .  A
N473        O478   1.263       .  A
N476        O479   1.263       .  A
N476        O480   1.262       .  A
C481        C482   1.398       .  A
C481        C486   1.393       .  A
C481        H488   1.083       .  S
C482        C483   1.415       .  A
C483        C484   1.408       .  A
C483        N490   1.435       .  S
C484        C485   1.408       .  A
C484        H489   1.083       .  S
C485        C486   1.419       .  A
C486        N487   1.434       .  S
N487        O491   1.262       .  A
N487        O492   1.262       .  A
N490        O493   1.262       .  A
N490        O494   1.263       .  A
C495        C496   1.401       .  A
C495        C500   1.407   1_556  A
C495        H502   1.084   1_556  S
C496        C497   1.414   1_655  A
C497        C498   1.403       .  A
C497        N504   1.436       .  S
C498        C499   1.403   1_556  A
C498        H503   1.084       .  S
C499        C500   1.418   1_455  A
C500        N501   1.434       .  S
N501        O505   1.262       .  A
N501        O506   1.262       .  A
N504        O507   1.263       .  A
N504        O508   1.262       .  A
C509        C510   1.405   1_455  A
C509        C514   1.409       .  A
C509        H516   1.084       .  S
C510        C511   1.416       .  A
C511        C512   1.407   1_655  A
C511        N518   1.439       .  S
C512        C513   1.404       .  A
C512        H517   1.084       .  S
C513        C514   1.415       .  A
C514        N515   1.441       .  S
N515        O519   1.263       .  A
N515        O520   1.262       .  A
N518        O521   1.261       .  A
N518        O522   1.263       .  A
C523        C524   1.397       .  A
C523        C528   1.398       .  A
C523        H530   1.085       .  S
C524        C525   1.413       .  A
C525        C526   1.404       .  A
C525        N532   1.441       .  S
C526        C527   1.406       .  A
C526        H531   1.083       .  S
C527        C528   1.419       .  A
C528        N529   1.433       .  S
N529        O533   1.262   1_565  A
N529        O534   1.263       .  A
N532        O535   1.263       .  A
N532        O536   1.263       .  A
C537        C538   1.398       .  A
C537        C542   1.399       .  A
C537        H544   1.084       .  S
C538        C539   1.412       .  A
C539        C540   1.402       .  A
C539        N546   1.432       .  S
C540        C541   1.404       .  A
C540        H545   1.084       .  S
C541        C542   1.413       .  A
C542        N543   1.425       .  S
N543        O547   1.262       .  A
N543        O548   1.262       .  A
N546        O549   1.262       .  A
N546        O550   1.262       .  A
C551        C552   1.399       .  A
C551        C556   1.401       .  A
C551        H558   1.085       .  S
C552        C553   1.412       .  A
C553        C554   1.397       .  A
C553        N560   1.434       .  S
C554        C555   1.402       .  A
C554        H559   1.084       .  S
C555        C556   1.418       .  A
C556        N557   1.436       .  S
N557        O561   1.263       .  A
N557        O562   1.263   1_565  A
N560        O563   1.262       .  A
N560        O564   1.262       .  A
C565        C566   1.401       .  A
C565        C570   1.397       .  A
C565        H572   1.084       .  S
C566        C567   1.417       .  A
C567        C568   1.410       .  A
C567        N574   1.439       .  S
C568        C569   1.405       .  A
C568        H573   1.084       .  S
C569        C570   1.414       .  A
C570        N571   1.431       .  S
N571        O575   1.262       .  A
N571        O576   1.262       .  A
N574        O577   1.263       .  A
N574        O578   1.263       .  A
C579        C580   1.406       .  A
C579        C584   1.390   1_556  A
C579        H586   1.083       .  S
C580        C581   1.421       .  A
C581        C582   1.416   1_556  A
C581        N588   1.439       .  S
C582        C583   1.404       .  A
C582        H587   1.084       .  S
C583        C584   1.406       .  A
C584        N585   1.432       .  S
N585        O589   1.262       .  A
N585        O590   1.262       .  A
N588        O591   1.263       .  A
N588        O592   1.263       .  A
C593        C594   1.402       .  A
C593        C598   1.406       .  A
C593        H600   1.084       .  S
C594        C595   1.417       .  A
C595        C596   1.406       .  A
C595        N602   1.432       .  S
C596        C597   1.403       .  A
C596        H601   1.084       .  S
C597        C598   1.419       .  A
C598        N599   1.432       .  S
N599        O603   1.262       .  A
N599        O604   1.262       .  A
N602        O605   1.262       .  A
N602        O606   1.262       .  A
