geometry optimzed in LAMMPS
_audit_creation_date              2020-11-30 
_audit_creation_method            'lammps2cif' 
_symmetry_space_group_name_H-M    'P1' 
_symmetry_Int_Tables_number       1 
_symmetry_cell_setting            triclinic 
loop_ 
_symmetry_equiv_pos_as_xyz 
  x,y,z 
_cell_length_a                    59.15066237899212 
_cell_length_b                    59.869416690988444 
_cell_length_c                    48.32685067623344 
_cell_angle_alpha                 94.97820737945614 
_cell_angle_beta                  90.21089922631758 
_cell_angle_gamma                 119.50517253622571 
loop_ 
_atom_site_label 
_atom_site_type_symbol 
_atom_site_fract_x 
_atom_site_fract_y 
_atom_site_fract_z 
_atom_site_charge 
O1          O  0.36786849  0.33180821  0.31168089    -0.75550
O2          O  0.40688870  0.36863177  0.31034634    -0.54460
C3          C  0.38306971  0.35330599  0.30182565     0.78180
O4          O  0.36903914  0.33681668  0.44729187    -0.60150
O5          O  0.37051314  0.30027910  0.45387910    -0.53180
C6          C  0.36178897  0.31636857  0.45927988     0.70190
O7          O  0.41378514  0.40172003  0.40049332    -0.74710
O8          O  0.43193587  0.40672413  0.35817754    -0.55280
C9          C  0.42437289  0.41443026  0.37990924     0.76190
O10         O  0.34099254  0.26638851  0.36518398    -0.59860
O11         O  0.35616629  0.25900399  0.40510392    -0.52980
C12         C  0.33901266  0.25268083  0.38500793     0.72780
Zr13       Zr  0.37043217  0.30696606  0.34807995     2.54710
O14         O  0.32776743  0.30369320  0.34957512    -0.80420
O15         O  0.35735621  0.27517851  0.30764568    -0.93840
Zr16       Zr  0.39786915  0.35914581  0.41281919     2.64680
O17         O  0.36150604  0.36602719  0.40308482    -0.98790
O18         O  0.41080108  0.38698843  0.45640436    -0.80860
O19         O  0.39210149  0.35129458  0.36389373    -0.84210
O20         O  0.37455577  0.31479604  0.39737390    -2.18920
O21         O  0.42386554  0.26524608  0.36358342    -0.67600
O22         O  0.40277039  0.25883986  0.40411504    -0.52170
C23         C  0.41257459  0.25184053  0.38367532     0.71170
O24         O  0.49252709  0.39682694  0.39361264    -0.60510
O25         O  0.47701360  0.40536000  0.35519292    -0.52490
C26         C  0.49450982  0.41090263  0.37432127     0.72970
O27         O  0.46903428  0.33519129  0.44627546    -0.71910
O28         O  0.43058120  0.29985643  0.45403700    -0.50580
C29         C  0.45557609  0.31535529  0.45896407     0.74350
O30         O  0.46523408  0.33260563  0.31265673    -0.67240
O31         O  0.45962533  0.36715255  0.30859405    -0.54430
C32         C  0.47021874  0.35339017  0.30175473     0.72730
Zr33       Zr  0.43603998  0.30621593  0.34703130     2.77540
O34         O  0.47458396  0.30135000  0.34679316    -0.97980
O35         O  0.41674651  0.27670958  0.30498431    -0.78810
Zr36       Zr  0.46300259  0.35769515  0.41182776     2.70070
O37         O  0.50636094  0.36280285  0.40995607    -0.80050
O38         O  0.47570835  0.38863002  0.45298807    -0.99140
Zr39       Zr  0.43447560  0.36823731  0.34714834     2.21500
Zr40       Zr  0.39885202  0.29686834  0.41647328     2.11130
O41         O  0.44050725  0.31343926  0.39641249    -2.47820
O42         O  0.45947729  0.35027684  0.36294610    -0.79850
O43         O  0.39471523  0.28939207  0.36633477    -0.72040
O44         O  0.43990097  0.37682706  0.39640992    -2.33000
O45         O  0.41186944  0.32405242  0.32922513    -2.29210
O46         O  0.42204672  0.34164752  0.43193574    -0.73800
H47         H  0.35713472  0.30699050  0.40384565     0.78200
H48         H  0.45006102  0.39496051  0.40267593     0.79280
H49         H  0.44975827  0.30514992  0.40273393     0.81510
H50         H  0.41069629  0.32208420  0.30913117     0.79120
H51         H  0.43000758  0.39720385  0.45639557     0.42150
H52         H  0.46534423  0.37841909  0.46791316     0.41120
H53         H  0.00633614  0.35415468  0.39152633     0.40800
H54         H  0.47716368  0.29834023  0.36608718     0.38730
H55         H  0.40007929  0.26267919  0.31070083     0.41870
H56         H  0.36901330  0.28443123  0.29299329     0.36650
H57         H  0.33131467  0.32172258  0.35043046     0.42770
H58         H  0.34699849  0.34871000  0.39643642     0.39180
H59         H  0.46904229  0.28461542  0.33570171     0.44100
H60         H  0.34007417  0.27226526  0.30137189     0.42820
H61         H  0.35666916  0.37035959  0.42154273     0.42960
H62         H  0.49377853  0.39300840  0.45797996     0.43320
O63         O  0.42691334  0.15545697  0.39887717    -0.75550
O64         O  0.40659351  0.14041976  0.35570568    -0.54460
C65         C  0.41625695  0.15752398  0.37682425     0.78180
O66         O  0.48283341  0.07210435  0.38414083    -0.60150
O67         O  0.46633193  0.05564027  0.42485183    -0.53180
C68         C  0.48250577  0.06055647  0.40550151     0.70190
O69         O  0.46908288  0.11803595  0.32536180    -0.74710
O70         O  0.43326903  0.12050344  0.31252233    -0.55280
C71         C  0.45713126  0.12556994  0.30979330     0.76190
O72         O  0.46045292  0.12893550  0.46022667    -0.59860
O73         O  0.45649492  0.08973285  0.46636930    -0.52980
C74         C  0.46633054  0.11435089  0.47270879     0.72780
Zr75       Zr  0.43456738  0.12459797  0.41970403     2.54710
O76         O  0.47506849  0.16552307  0.42205526    -0.80420
O77         O  0.41660068  0.14014391  0.45692823    -0.93840
Zr78       Zr  0.46108448  0.09263754  0.36373734     2.64680
O79         O  0.50430851  0.12930331  0.37593846    -0.98790
O80         O  0.47691348  0.07594135  0.32541778    -0.80860
O81         O  0.44216998  0.11931125  0.37203979    -0.84210
O82         O  0.45552084  0.09988213  0.41113857    -2.18920
O83         O  0.35741917  0.03035872  0.44723240    -0.67600
O84         O  0.39537085  0.03160708  0.45935391    -0.52170
C85         C  0.37054140  0.02235995  0.46079460     0.71170
O86         O  0.35927302  0.03283581  0.32585946    -0.60510
O87         O  0.37975962  0.06856149  0.30448205    -0.52490
C88         C  0.36452547  0.04400829  0.30368069     0.72970
O89         O  0.40125584  0.00259798  0.37612724    -0.71910
O90         O  0.42082455  0.01646191  0.41974888    -0.50580
C91         C  0.41116800  0.99994619  0.39829127     0.74350
O92         O  0.33852183  0.07111420  0.38372632    -0.67240
O93         O  0.35791138  0.09297061  0.34617545    -0.54430
C94         C  0.33871020  0.08219823  0.36194641     0.72730
Zr95       Zr  0.36620108  0.06220388  0.41309870     2.77540
O96         O  0.32008152  0.03023199  0.41131250    -0.97980
O97         O  0.35897218  0.08739489  0.45070018    -0.78810
Zr98       Zr  0.39165298  0.03164044  0.35489418     2.70070
O99         O  0.35266596  0.48955190  0.34944114    -0.80050
O100        O  0.40502314  0.01707190  0.31269051    -0.99140
Zr101      Zr  0.40086322  0.09743511  0.34727475     2.21500
Zr102      Zr  0.42730586  0.05924434  0.42755561     2.11130
O103        O  0.38574204  0.03657363  0.40272659    -2.47820
O104        O  0.37232762  0.05716002  0.36480024    -0.79850
O105        O  0.40717793  0.08478730  0.43828656    -0.72040
O106        O  0.42055858  0.07128447  0.33794313    -2.33000
O107        O  0.39337137  0.10260558  0.39587354    -2.29210
O108        O  0.43267530  0.05245303  0.37916698    -0.73800
H109        H  0.47265274  0.10811568  0.42021619     0.78200
H110        H  0.42291178  0.06900881  0.31833315     0.79280
H111        H  0.37529632  0.01925300  0.40775045     0.81510
H112        H  0.38476487  0.11270229  0.39866217     0.79120
H113        H  0.46163350  0.05927191  0.31832828     0.42150
H114        H  0.41658624  0.01086717  0.31939512     0.41120
H115        H  0.34132909  0.99066621  0.36388372     0.40800
H116        H  0.31935920  0.01335163  0.40767565     0.38730
H117        H  0.36063383  0.08018879  0.46778397     0.41870
H118        H  0.40120573  0.13964206  0.44809875     0.36650
H119        H  0.48664797  0.16186980  0.41007923     0.42770
H120        H  0.51128666  0.12432496  0.39146515     0.39180
H121        H  0.31471233  0.03068067  0.43064336     0.44100
H122        H  0.42939129  0.15875573  0.46069249     0.42820
H123        H  0.01476420  0.12911896  0.36005774     0.42960
H124        H  0.38912194  0.00121637  0.30499748     0.43320
O125        O  0.00811900  0.41287083  0.13272947    -0.75550
O126        O  0.02932392  0.43406847  0.17448837    -0.54460
C127        C  0.01002051  0.42512961  0.15656175     0.78180
O128        O  0.07068032  0.33860762  0.12487570    -0.60150
O129        O  0.08834910  0.35154149  0.08315626    -0.53180
C130        C  0.07923086  0.33498520  0.10151734     0.70190
O131        O  0.04388460  0.37077033  0.19538172    -0.74710
O132        O  0.05133735  0.41117155  0.20909525    -0.55280
C133        C  0.04143470  0.38708217  0.21238288     0.76190
O134        O  0.01981366  0.36676925  0.06430989    -0.59860
O135        O  0.05487879  0.36493744  0.04730977    -0.52980
C136        C  0.03001849  0.35732622  0.04698735     0.72780
Zr137      Zr  0.03267567  0.39807357  0.10441618     2.54710
O138        O  0.48933713  0.36363332  0.11230519    -0.80420
O139        O  0.01739505  0.41524270  0.06949305    -0.93840
Zr140      Zr  0.06571950  0.37139820  0.15250400     2.64680
O141        O  0.02454925  0.33131509  0.15261188    -0.98790
O142        O  0.08887090  0.35914098  0.18420955    -0.80860
O143        O  0.04303089  0.39443305  0.15041572    -0.84210
O144        O  0.05436204  0.37381880  0.10628723    -2.18920
O145        O  0.11311701  0.46193098  0.05696008    -0.67600
O146        O  0.10927111  0.42291680  0.04111903    -0.52170
C147        C  0.11515426  0.44666365  0.03825233     0.71170
O148        O  0.14244262  0.46262354  0.19282033    -0.60510
O149        O  0.10625323  0.46441319  0.20612968    -0.52490
C150        C  0.13050301  0.47108291  0.20900211     0.72970
O151        O  0.15789162  0.42225201  0.11970457    -0.71910
O152        O  0.13726837  0.40027475  0.07802846    -0.50580
C153        C  0.15740026  0.41119336  0.09549538     0.74350
O154        O  0.09476895  0.49514431  0.13380727    -0.67240
O155        O  0.07640789  0.47958725  0.17428209    -0.54430
C156        C  0.08584235  0.49733503  0.15770048     0.72730
Zr157      Zr  0.09898778  0.46227581  0.10318661     2.77540
O158        O  0.14161261  0.50083301  0.10432396    -0.97980
O159        O  0.07778122  0.47910931  0.07493390    -0.78810
Zr160      Zr  0.13215947  0.43491727  0.14926153     2.70070
O161        O  0.17037697  0.47637600  0.14422272    -0.80050
O162        O  0.15302468  0.41965780  0.18019207    -0.99140
Zr163      Zr  0.07150711  0.43688678  0.17128029     2.21500
Zr164      Zr  0.09289022  0.39496129  0.08072667     2.11130
O165        O  0.12091186  0.43788747  0.10307873    -2.47820
O166        O  0.11077792  0.45931208  0.14859547    -0.79850
O167        O  0.07120663  0.41997917  0.08032286    -0.72040
O168        O  0.09408327  0.41330586  0.17429638    -2.33000
O169        O  0.05988361  0.44047625  0.12531492    -2.29210
O170        O  0.10413110  0.39268630  0.12791077    -0.73800
H171        H  0.04334299  0.35622736  0.09844551     0.78200
H172        H  0.09842175  0.41271861  0.19341416     0.79280
H173        H  0.13661235  0.44635903  0.09312007     0.81510
H174        H  0.05116957  0.45050711  0.12516790     0.79120
H175        H  0.08737417  0.36630728  0.20291896     0.42150
H176        H  0.14759918  0.40185761  0.17213332     0.41120
H177        H  0.16465905  0.48926770  0.14829511     0.40800
H178        H  0.15293908  0.49501682  0.09494304     0.38730
H179        H  0.06534785  0.46407145  0.06217100     0.41870
H180        H  0.01861394  0.43111122  0.07913790     0.36650
H181        H  0.49198221  0.35519526  0.12776586     0.42770
H182        H  0.01731796  0.32705915  0.13316520     0.39180
H183        H  0.13948482  0.01156420  0.09120366     0.44100
H184        H  0.99848134  0.40297212  0.06691061     0.42820
H185        H  0.02934193  0.31802173  0.15576456     0.42960
H186        H  0.17177496  0.42969011  0.17677125     0.43320
O187        O  0.14982511  0.11954101  0.32461135    -0.75550
O188        O  0.18693812  0.11960218  0.31140823    -0.54460
C189        C  0.16834978  0.12488240  0.30818046     0.78180
O190        O  0.17213956  0.13095499  0.46133407    -0.60150
O191        O  0.13592626  0.09247663  0.46713557    -0.53180
C192        C  0.15154630  0.11684340  0.47374700     0.70190
O193        O  0.23103059  0.15646438  0.39874766    -0.74710
O194        O  0.23440060  0.14087779  0.35492985    -0.55280
C195        C  0.24248571  0.15816496  0.37593108     0.76190
O196        O  0.09149937  0.07746130  0.38668811    -0.59860
O197        O  0.09149540  0.06039262  0.42705092    -0.52980
C198        C  0.08036741  0.06594111  0.40812252     0.72780
Zr199      Zr  0.13339645  0.09702573  0.36520240     2.54710
O200        O  0.13136066  0.13613757  0.37848597    -0.80420
O201        O  0.09751063  0.08169924  0.33055460    -0.93840
Zr202      Zr  0.19276492  0.12603523  0.42028159     2.64680
O203        O  0.19580187  0.16827180  0.42311938    -0.98790
O204        O  0.22666773  0.13962573  0.45687462    -0.80860
O205        O  0.17929320  0.12148687  0.37280988    -0.84210
O206        O  0.14695491  0.10324513  0.41230941    -2.18920
O207        O  0.09846171  0.00680284  0.37517366    -0.67600
O208        O  0.09440382  0.02055680  0.41951033    -0.52170
C209        C  0.08643192  0.00470750  0.39745922     0.71170
O210        O  0.23112041  0.06908698  0.38267948    -0.60510
O211        O  0.23451480  0.09238646  0.34610348    -0.52490
C212        C  0.24228387  0.08054858  0.36122621     0.72970
O213        O  0.17205975  0.03045952  0.44676603    -0.71910
O214        O  0.13681513  0.03394281  0.45970866    -0.50580
C215        C  0.15161178  0.02376018  0.46102779     0.74350
O216        O  0.17187728  0.03299664  0.32798060    -0.67240
O217        O  0.18868687  0.06814073  0.30547473    -0.54430
C218        C  0.17873183  0.04355824  0.30548404     0.72730
Zr219      Zr  0.13786947  0.03379478  0.35434111     2.77540
O220        O  0.12661864  0.48879525  0.34438510    -0.97980
O221        O  0.11182772  0.02425621  0.31127676    -0.78810
Zr222      Zr  0.19484907  0.06125605  0.41193844     2.70070
O223        O  0.20370134  0.02553297  0.40896060    -0.80050
O224        O  0.22872150  0.08415750  0.44887294    -0.99140
Zr225      Zr  0.19671115  0.09796874  0.34741791     2.21500
Zr226      Zr  0.13296278  0.06190094  0.42791749     2.11130
O227        O  0.14936051  0.03746338  0.40209665    -2.47820
O228        O  0.18296903  0.05689854  0.36398419    -0.79850
O229        O  0.12014328  0.05627327  0.37985796    -0.72040
O230        O  0.20992936  0.10245291  0.39570324    -2.33000
O231        O  0.15063389  0.07426283  0.33840250    -2.29210
O232        O  0.17875941  0.08548348  0.43802185    -0.73800
H233        H  0.13882592  0.11210621  0.42167179     0.78200
H234        H  0.22866551  0.11190971  0.39822026     0.79280
H235        H  0.14183357  0.02008319  0.40720417     0.81510
H236        H  0.14600224  0.07243167  0.31883165     0.79120
H237        H  0.24098768  0.13847439  0.44754929     0.42150
H238        H  0.21936809  0.07994280  0.46628350     0.41120
H239        H  0.19046088  0.01251401  0.39498111     0.40800
H240        H  0.12611886  0.48256208  0.36281027     0.38730
H241        H  0.09644148  0.02554933  0.31707945     0.41870
H242        H  0.10325087  0.07570255  0.31368045     0.36650
H243        H  0.14914174  0.15035492  0.37608538     0.42770
H244        H  0.17769629  0.16477416  0.42484013     0.39180
H245        H  0.10830297  0.47958026  0.33697760     0.44100
H246        H  0.09746049  0.09743334  0.32579975     0.42820
H247        H  0.20460542  0.17689250  0.44151994     0.42960
H248        H  0.23860048  0.07475764  0.44833061     0.43320
O249        O  0.03483829  0.17820725  0.20832889    -0.75550
O250        O  0.04283503  0.14797276  0.22509061    -0.54460
C251        C  0.03083199  0.16112420  0.22516025     0.78180
O252        O  0.03061008  0.14659775  0.07668820    -0.60150
O253        O  0.06714741  0.18174018  0.06426997    -0.53180
C254        C  0.04343417  0.16323398  0.05989684     0.70190
O255        O  0.00831301  0.10143180  0.14764064    -0.74710
O256        O  0.02561180  0.10125690  0.18959761    -0.55280
C257        C  0.00691386  0.09191843  0.17067585     0.76190
O258        O  0.07117655  0.23355622  0.14165054    -0.59860
O259        O  0.09214663  0.23202737  0.10245438    -0.52980
C260        C  0.08150383  0.24211037  0.11849776     0.72780
Zr261      Zr  0.06510665  0.19967610  0.17196429     2.54710
O262        O  0.02865127  0.20782053  0.17232503    -0.80420
O263        O  0.08799859  0.23556373  0.20783419    -0.93840
Zr264      Zr  0.03624529  0.13568115  0.12134395     2.64680
O265        O  0.49482003  0.13512965  0.12284191    -0.98790
O266        O  0.01819991  0.09654939  0.08925547    -0.80860
O267        O  0.04321433  0.15391451  0.16766138    -0.84210
O268        O  0.05703884  0.18118369  0.12496169    -2.18920
O269        O  0.15970147  0.23655391  0.14671292    -0.67600
O270        O  0.14120137  0.23121591  0.10326022    -0.52170
C271        C  0.15990680  0.24326216  0.12190060     0.71170
O272        O  0.09927388  0.10469950  0.15247176    -0.60510
O273        O  0.07568703  0.10207931  0.19044775    -0.52490
C274        C  0.08840713  0.09431215  0.17427779     0.72970
O275        O  0.12124010  0.14872792  0.08103169    -0.71910
O276        O  0.11775490  0.18205790  0.06611067    -0.50580
C277        C  0.12452552  0.16454826  0.06332978     0.74350
O278        O  0.14051923  0.17969203  0.21201832    -0.67240
O279        O  0.10227347  0.14738392  0.22598841    -0.54430
C280        C  0.12733309  0.16123787  0.22729586     0.72730
Zr281      Zr  0.13213394  0.20169266  0.17575880     2.77540
O282        O  0.17750380  0.21268673  0.18167238    -0.97980
O283        O  0.14092164  0.23621268  0.21206437    -0.78810
Zr284      Zr  0.10327549  0.13773941  0.12501886     2.70070
O285        O  0.14638481  0.14228640  0.12873464    -0.80050
O286        O  0.08452170  0.09738366  0.09483829    -0.99140
Zr287      Zr  0.06900315  0.13980898  0.19067617     2.21500
Zr288      Zr  0.09799284  0.19473437  0.10455592     2.11130
O289        O  0.12559805  0.18329599  0.12877281    -2.47820
O290        O  0.11045032  0.15603309  0.17125265    -0.79850
O291        O  0.10585219  0.21426972  0.15170119    -0.72040
O292        O  0.06192258  0.12171294  0.14352456    -2.33000
O293        O  0.09113337  0.18653078  0.19652778    -2.29210
O294        O  0.07632038  0.14893938  0.10047100    -0.73800
H295        H  0.04664771  0.18659921  0.11506259     0.78200
H296        H  0.05314995  0.10309516  0.14206760     0.79280
H297        H  0.14212790  0.18942734  0.12031670     0.81510
H298        H  0.09348092  0.19273486  0.21603673     0.79120
H299        H  0.02853733  0.08825486  0.09356395     0.42150
H300        H  0.07710536  0.10064982  0.07827381     0.41120
H301        H  0.15566902  0.15617918  0.14403469     0.40800
H302        H  0.18281260  0.21051574  0.16266723     0.38730
H303        H  0.14524344  0.25136153  0.20187452     0.41870
H304        H  0.07813118  0.22954194  0.22467807     0.36650
H305        H  0.01634995  0.19535690  0.15730538     0.42770
H306        H  0.49923840  0.15320398  0.12136436     0.39180
H307        H  0.18719425  0.23152255  0.18713937     0.44100
H308        H  0.08421147  0.24900750  0.20241690     0.42820
H309        H  0.48541386  0.12566614  0.10493420     0.42960
H310        H  0.09969006  0.09613243  0.08810824     0.43320
O311        O  0.32162196  0.46406321  0.18976958    -0.75550
O312        O  0.35877511  0.46476548  0.20442896    -0.54460
C313        C  0.34162313  0.47206814  0.20662289     0.78180
O314        O  0.26628643  0.34032798  0.12766409    -0.60150
O315        O  0.26209220  0.35090447  0.08419771    -0.53180
C316        C  0.25364460  0.33637822  0.10445125     0.70190
O317        O  0.32735244  0.37250592  0.19712357    -0.74710
O318        O  0.36160510  0.41278098  0.20899174    -0.55280
C319        C  0.34677280  0.38912444  0.21347383     0.76190
O320        O  0.26606688  0.42230094  0.11552905    -0.59860
O321        O  0.26291054  0.39775305  0.07530606    -0.52980
C322        C  0.25446155  0.40975458  0.09206972     0.72780
Zr323      Zr  0.30380691  0.43539181  0.14653138     2.54710
O324        O  0.26746934  0.41888867  0.17685562    -0.80420
O325        O  0.30114971  0.47386271  0.13963189    -0.93840
Zr326      Zr  0.30635940  0.37155563  0.15287673     2.64680
O327        O  0.27432314  0.36024953  0.18820875    -0.98790
O328        O  0.30524980  0.33022404  0.15021365    -0.80860
O329        O  0.31980767  0.41403431  0.17308907    -0.84210
O330        O  0.28939104  0.39270034  0.12724203    -2.18920
O331        O  0.34765686  0.45958359  0.05427619    -0.67600
O332        O  0.31208412  0.42055500  0.03965160    -0.52170
C333        C  0.32962418  0.44429952  0.03625137     0.71170
O334        O  0.40610366  0.41479283  0.13138074    -0.60510
O335        O  0.40576034  0.43556422  0.17322453    -0.52490
C336        C  0.41653955  0.42743808  0.15510383     0.72970
O337        O  0.34484038  0.36213147  0.06647684    -0.71910
O338        O  0.30954767  0.36228355  0.04747518    -0.50580
C339        C  0.32593833  0.35366608  0.04821735     0.74350
O340        O  0.40113278  0.49226045  0.12893322    -0.67240
O341        O  0.40281525  0.47966800  0.17170176    -0.54430
C342        C  0.41140237  0.49613218  0.15370127     0.72730
Zr343      Zr  0.36372054  0.45946856  0.09948080     2.77540
O344        O  0.40108896  0.47323154  0.07065019    -0.97980
O345        O  0.36054067  0.49826871  0.09725678    -0.78810
Zr346      Zr  0.36512226  0.39558340  0.10450178     2.70070
O347        O  0.39621125  0.40776107  0.06814611    -0.80050
O348        O  0.37405592  0.36219417  0.11736493    -0.99140
Zr349      Zr  0.36575496  0.43694117  0.16980698     2.21500
Zr350      Zr  0.30196149  0.39292844  0.07971575     2.11130
O351        O  0.34857772  0.41663906  0.07845822    -2.47820
O352        O  0.38065276  0.43841476  0.12393764    -0.79850
O353        O  0.31765177  0.43631629  0.10037959    -0.72040
O354        O  0.35192692  0.39389683  0.15051908    -2.33000
O355        O  0.34947853  0.45906138  0.14486547    -2.29210
O356        O  0.31928706  0.37211059  0.10628049    -0.73800
H357        H  0.27071077  0.38383128  0.12795040     0.78200
H358        H  0.35996111  0.38612504  0.16053871     0.79280
H359        H  0.35381021  0.41679670  0.05952828     0.81510
H360        H  0.35610457  0.47664199  0.15283899     0.79120
H361        H  0.32316609  0.33456953  0.15589928     0.42150
H362        H  0.35671809  0.34673217  0.11790708     0.41120
H363        H  0.40585508  0.42685196  0.07059968     0.40800
H364        H  0.39459672  0.46104479  0.05354395     0.38730
H365        H  0.34165544  0.49221518  0.09716393     0.41870
H366        H  0.31866904  0.48848213  0.14543400     0.36650
H367        H  0.27496887  0.41791650  0.19476176     0.42770
H368        H  0.26547230  0.37022738  0.18499448     0.39180
H369        H  0.40405675  0.48980929  0.06460076     0.44100
H370        H  0.28979027  0.47468070  0.15421419     0.42820
H371        H  0.26109304  0.34204122  0.18266608     0.42960
H372        H  0.38203433  0.35836018  0.10099039     0.43320
C373        C  0.46012735  0.06721183  0.15848315    -0.09420
C374        C  0.48131613  0.06876416  0.17361218     0.06780
C375        C  0.47778763  0.04680221  0.18581115    -0.03190
C376        C  0.45444766  0.02331352  0.17994958    -0.07630
C377        C  0.43457972  0.02144560  0.16202840     0.05890
C378        C  0.43730302  0.04406513  0.15223557    -0.02660
Br379      Br  0.41102474  0.04538648  0.13003763    -0.02350
H380        H  0.46184855  0.08404991  0.14980868     0.09810
H381        H  0.45231314  0.50624539  0.18842371     0.07820
Br382      Br  0.00415450  0.04727483  0.20928358    -0.02780
C383        C  0.18963702  0.29024766  0.13119845    -0.09420
C384        C  0.18289596  0.26725268  0.11472745     0.06780
C385        C  0.19753997  0.26804392  0.09137903    -0.03190
C386        C  0.21974949  0.29133794  0.08625362    -0.07630
C387        C  0.22685545  0.31418907  0.10343431     0.05890
C388        C  0.21069424  0.31358080  0.12514175    -0.02660
Br389      Br  0.21677666  0.34436081  0.14742745    -0.02350
H390        H  0.17806585  0.29015727  0.14857223     0.09810
H391        H  0.23212341  0.29130222  0.06980534     0.07820
Br392      Br  0.18919992  0.23747709  0.06739306    -0.02780
C393        C  0.13754603  0.12847205  0.24243832    -0.09420
C394        C  0.14195013  0.15386068  0.24611789     0.06780
C395        C  0.15977378  0.17107270  0.26760325    -0.03190
C396        C  0.17120652  0.16215483  0.28620378    -0.07630
C397        C  0.16574941  0.13634336  0.28328980     0.05890
C398        C  0.14934974  0.11974654  0.26058077    -0.02660
Br399      Br  0.14008813  0.08404217  0.25541371    -0.02350
H400        H  0.12422298  0.11508192  0.22578086     0.09810
H401        H  0.18290654  0.17491583  0.30414194     0.07820
Br402      Br  0.16673792  0.20598099  0.27420152    -0.02780
C403        C  0.12090238  0.15168248  0.01297459    -0.09420
C404        C  0.13599120  0.16026723  0.03803885     0.06780
C405        C  0.15748315  0.15626736  0.04074180    -0.03190
C406        C  0.16179377  0.14140243  0.01989905    -0.07630
C407        C  0.14521434  0.13072944  0.49598713     0.05890
C408        C  0.12576959  0.13741702  0.49170668    -0.02660
Br409      Br  0.10630637  0.12864016  0.45684932    -0.02350
H410        H  0.10442213  0.15471921  0.01055455     0.09810
H411        H  0.17798120  0.13793733  0.02247896     0.07820
Br412      Br  0.18057385  0.16948541  0.07342412    -0.02780
C413        C  0.11636138  0.48448976  0.48026687    -0.09420
C414        C  0.14317003  0.00152119  0.47853894     0.06780
C415        C  0.16065766  0.99622646  0.99294607    -0.03190
C416        C  0.15116592  0.47545497  0.00967113    -0.07630
C417        C  0.12429315  0.45897965  0.01196404     0.05890
C418        C  0.10701568  0.46338798  0.99619071    -0.02660
Br419      Br  0.07005902  0.44236798  0.99816625    -0.02350
H420        H  0.10238249  0.48778174  0.46941757     0.09810
H421        H  0.16487780  0.47343091  0.02267590     0.07820
Br422      Br  0.19762285  0.01849236  0.99350101    -0.02780
C423        C  0.15250681  0.48235507  0.25588390    -0.09420
C424        C  0.14600966  0.49033615  0.23231158     0.06780
C425        C  0.15460010  0.01670882  0.23123649    -0.03190
C426        C  0.16738153  0.03439223  0.25455578    -0.07630
C427        C  0.17206545  0.02619193  0.27921330     0.05890
C428        C  0.16558631  0.49993722  0.27914889    -0.02660
Br429      Br  0.17375618  0.48629323  0.30979938    -0.02350
H430        H  0.14687847  0.46222198  0.25641976     0.09810
H431        H  0.17248963  0.05434798  0.25376759     0.07820
Br432      Br  0.14944090  0.02938151  0.19824984    -0.02780
C433        C  0.06747962  0.04816884  0.18380963    -0.09420
C434        C  0.08999087  0.07088736  0.17868717     0.06780
C435        C  0.11204283  0.06920641  0.17036163    -0.03190
C436        C  0.11006090  0.04517917  0.16329625    -0.07630
C437        C  0.08709023  0.02229848  0.16678127     0.05890
C438        C  0.06603721  0.02403050  0.17850695    -0.02660
Br439      Br  0.03385485  0.49425202  0.18497430    -0.02350
H440        H  0.05038310  0.04898594  0.19002950     0.09810
H441        H  0.12666309  0.04441755  0.15496576     0.07820
Br442      Br  0.14544039  0.09922149  0.16789793    -0.02780
C443        C  0.10246667  0.30963289  0.09723917    -0.09420
C444        C  0.07887073  0.30986858  0.09734339     0.06780
C445        C  0.05590174  0.28674686  0.10150614    -0.03190
C446        C  0.05705883  0.26488454  0.10796144    -0.07630
C447        C  0.08085491  0.26510664  0.10959121     0.05890
C448        C  0.10354593  0.28749318  0.10298434    -0.02660
Br449      Br  0.13698303  0.28994001  0.10428151    -0.02350
H450        H  0.12039105  0.32724551  0.09464515     0.09810
H451        H  0.03927591  0.24768804  0.11199778     0.07820
Br452      Br  0.02238705  0.28432503  0.09898934    -0.02780
C453        C  0.18312447  0.39064242  0.07420368    -0.09420
C454        C  0.18248215  0.41198184  0.08835919     0.06780
C455        C  0.20652885  0.43349453  0.09866397    -0.03190
C456        C  0.22954913  0.43268765  0.09667267    -0.07630
C457        C  0.23008618  0.41058643  0.08541466     0.05890
C458        C  0.20668931  0.38979581  0.07268178    -0.02660
Br459      Br  0.20548370  0.35942838  0.05462523    -0.02350
H460        H  0.16513407  0.37400812  0.06576928     0.09810
H461        H  0.24730668  0.44937572  0.10559818     0.07820
Br462      Br  0.21030767  0.46493753  0.11714085    -0.02780
C463        C  0.44857059  0.42182185  0.18230663    -0.09420
C464        C  0.44310854  0.43313183  0.16089255     0.06780
C465        C  0.46181412  0.44551186  0.14150195    -0.03190
C466        C  0.48454060  0.44417863  0.14196030    -0.07630
C467        C  0.48909778  0.43089929  0.16174297     0.05890
C468        C  0.47162534  0.42063448  0.18283552    -0.02660
Br469      Br  0.47684421  0.40214844  0.21027686    -0.02350
H470        H  0.43406806  0.41212659  0.19715623     0.09810
H471        H  0.49818821  0.45244801  0.12590840     0.07820
Br472      Br  0.45629114  0.46280141  0.11269533    -0.02780
C473        C  0.03229558  0.14552482  0.01110362    -0.09420
C474        C  0.02849170  0.15905976  0.03401288     0.06780
C475        C  0.50465145  0.15892287  0.03570183    -0.03190
C476        C  0.48426186  0.14347650  0.01609898    -0.07630
C477        C  0.48728102  0.12811839  0.49449557     0.05890
C478        C  0.01201896  0.13048468  0.49111695    -0.02660
Br479      Br  0.01955355  0.11485175  0.45893614    -0.02350
H480        H  0.05048055  0.14532614  0.00967369     0.09810
H481        H  0.46587762  0.14321526  0.01789746     0.07820
Br482      Br  0.49864422  0.17808945  0.06590063    -0.02780
C483        C  0.46550439  0.13028467  0.25926452    -0.09420
C484        C  0.47308723  0.14034973  0.28717435     0.06780
C485        C  0.49918029  0.16001762  0.29356849    -0.03190
C486        C  0.01758252  0.16722499  0.27305873    -0.07630
C487        C  0.01042827  0.15568277  0.24564964     0.05890
C488        C  0.48387589  0.13806202  0.23856698    -0.02660
Br489      Br  0.47213006  0.12308330  0.20111024    -0.02350
H490        H  0.44573689  0.11505025  0.25383321     0.09810
H491        H  0.03771073  0.18135295  0.27874126     0.07820
Br492      Br  0.01088461  0.17672390  0.33063879    -0.02780
C493        C  0.36242718  0.47977661  0.47538965    -0.09420
C494        C  0.35597861  0.99959643  0.47738927     0.06780
C495        C  0.33598034  0.99711462  0.99500437    -0.03190
C496        C  0.32410578  0.47603907  0.01122082    -0.07630
C497        C  0.33141223  0.45682183  0.01028335     0.05890
C498        C  0.35021484  0.45865689  0.99131348    -0.02660
Br499      Br  0.36225362  0.43412222  0.98906803    -0.02350
H500        H  0.37745639  0.48104326  0.46179518     0.09810
H501        H  0.31074855  0.47594394  0.02655448     0.07820
Br502      Br  0.32637433  0.02340731  0.00040713    -0.02780
C503        C  0.32910114  0.48411930  0.25212381    -0.09420
C504        C  0.34543875  0.49148890  0.22989524     0.06780
C505        C  0.36525743  0.01738499  0.23025853    -0.03190
C506        C  0.36982938  0.03498802  0.25356563    -0.07630
C507        C  0.35475904  0.02724517  0.27688460     0.05890
C508        C  0.33344415  0.00164486  0.27543512    -0.02660
Br509      Br  0.30930763  0.98904164  0.30433460    -0.02350
H510        H  0.31324945  0.46444459  0.25164622     0.09810
H511        H  0.38611829  0.05441739  0.25396741     0.07820
Br512      Br  0.38653074  0.02966019  0.19936293    -0.02780
C513        C  0.03758027  0.05014800  0.38464475    -0.09420
C514        C  0.05256545  0.05802355  0.40978668     0.06780
C515        C  0.04080813  0.05943930  0.43479803    -0.03190
C516        C  0.01617271  0.05743228  0.43354657    -0.07630
C517        C  0.00313729  0.05367692  0.40776511     0.05890
C518        C  0.01287339  0.04741458  0.38355917    -0.02660
Br519      Br  0.99338473  0.03511261  0.34841676    -0.02350
H520        H  0.04547338  0.04688075  0.36548605     0.09810
H521        H  0.00809001  0.06059206  0.45257152     0.07820
Br522      Br  0.05769998  0.06581389  0.47088305    -0.02780
C523        C  0.28967531  0.10453445  0.35585734    -0.09420
C524        C  0.26652465  0.08078799  0.35456928     0.06780
C525        C  0.26751938  0.05771655  0.35154731    -0.03190
C526        C  0.29150227  0.05862608  0.35181557    -0.07630
C527        C  0.31465908  0.08232306  0.35517433     0.05890
C528        C  0.31376440  0.10545878  0.35646848    -0.02660
Br529      Br  0.34455314  0.13855492  0.36307339    -0.02350
H530        H  0.28905465  0.12237645  0.35860503     0.09810
H531        H  0.29208935  0.04075956  0.35079632     0.07820
Br532      Br  0.23671772  0.02453411  0.34819211    -0.02780
C533        C  0.46463583  0.31172935  0.00858044    -0.09420
C534        C  0.47183681  0.31290139  0.48104026     0.06780
C535        C  0.99852044  0.32138615  0.47641360    -0.03190
C536        C  0.01774689  0.33423315  0.49823251    -0.07630
C537        C  0.01072643  0.33690198  0.02543323     0.05890
C538        C  0.48374346  0.32254513  0.03064903    -0.02660
Br539      Br  0.47156451  0.31671814  0.06744517    -0.02350
H540        H  0.44436157  0.30421170  0.01300045     0.09810
H541        H  0.03808742  0.34344727  0.49355740     0.07820
Br542      Br  0.00981328  0.31806789  0.43985171    -0.02780
C543        C  0.49386421  0.34415450  0.26376585    -0.09420
C544        C  0.48960378  0.36222627  0.28001405     0.06780
C545        C  0.50430085  0.38850259  0.27525147    -0.03190
C546        C  0.02173718  0.39584787  0.25415915    -0.07630
C547        C  0.02512155  0.37775345  0.23680747     0.05890
C548        C  0.01128685  0.35151801  0.24234938    -0.02660
Br549      Br  0.01455097  0.32428124  0.22203447    -0.02350
H550        H  0.48315208  0.32397448  0.26733512     0.09810
H551        H  0.03228513  0.41612397  0.25100317     0.07820
Br552      Br  0.50260900  0.41617590  0.29659502    -0.02780
C553        C  0.40186865  0.43649038  0.37100215    -0.09420
C554        C  0.42485852  0.43841835  0.38110910     0.06780
C555        C  0.44185476  0.45911970  0.40031262    -0.03190
C556        C  0.43655248  0.47897714  0.40730253    -0.07630
C557        C  0.41340261  0.47700203  0.39702565     0.05890
C558        C  0.39529955  0.45482074  0.38016321    -0.02660
Br559      Br  0.36041372  0.44710256  0.37124278    -0.02350
H560        H  0.38769237  0.41925543  0.35829420     0.09810
H561        H  0.45050306  0.99591290  0.42048493     0.07820
Br562      Br  0.47099183  0.45998349  0.41905194    -0.02780
C563        C  0.41168553  0.19179911  0.40357599    -0.09420
C564        C  0.41385693  0.18081645  0.37745738     0.06780
C565        C  0.41380490  0.19244067  0.35344343    -0.03190
C566        C  0.41220717  0.21495158  0.35607496    -0.07630
C567        C  0.41116898  0.22656150  0.38235001     0.05890
C568        C  0.41061604  0.21454489  0.40630834    -0.02660
Br569      Br  0.41025167  0.22859573  0.44353554    -0.02350
H570        H  0.41122557  0.18283894  0.42226577     0.09810
H571        H  0.41245686  0.22379080  0.33735645     0.07820
Br572      Br  0.41785790  0.17996101  0.31685808    -0.02780
C573        C  0.04018651  0.43568942  0.38895588    -0.09420
C574        C  0.01859505  0.43536186  0.37633714     0.06780
C575        C  0.01948715  0.45870168  0.37180967    -0.03190
C576        C  0.04103758  0.48181392  0.38235007    -0.07630
C577        C  0.06180084  0.48174094  0.39627428     0.05890
C578        C  0.06166600  0.45862781  0.39889615    -0.02660
Br579      Br  0.09125684  0.45748674  0.41352421    -0.02350
H580        H  0.04011647  0.41786683  0.39168170     0.09810
H581        H  0.04235331  0.99992093  0.37821479     0.07820
Br582      Br  0.49294677  0.46062947  0.35084333    -0.02780
C583        C  0.29017693  0.18137244  0.38088300    -0.09420
C584        C  0.26719193  0.18176484  0.37495397     0.06780
C585        C  0.26780063  0.20535357  0.37360450    -0.03250
C586        C  0.29142013  0.22826672  0.37777604    -0.07630
C587        C  0.31456604  0.22808500  0.38390590     0.05890
C588        C  0.31385612  0.20436783  0.38546223    -0.02660
Br589      Br  0.34441745  0.20205371  0.39269830    -0.02350
H590        H  0.28955741  0.16317505  0.38276577     0.09810
H591        H  0.29172573  0.24637489  0.37628722     0.07820
Br592      Br  0.23677193  0.20707030  0.36644072    -0.02780
C593        C  0.34732170  0.31027090  0.00822986    -0.09420
C594        C  0.34267491  0.31346111  0.48088425     0.06780
C595        C  0.32470143  0.32226905  0.47632618    -0.03190
C596        C  0.31702957  0.33335408  0.99858032    -0.07630
C597        C  0.32529196  0.33404685  0.02597131     0.05890
C598        C  0.33779747  0.31941043  0.03055609    -0.02660
Br599      Br  0.34228189  0.31099677  0.06676765    -0.02350
H600        H  0.35982123  0.30236168  0.01245816     0.09810
H601        H  0.30610159  0.34290355  0.99421924     0.07820
Br602      Br  0.31155584  0.32130001  0.43963690    -0.02780
C603        C  0.34822455  0.35391971  0.23586836    -0.09420
C604        C  0.35374401  0.37974606  0.23784234     0.06780
C605        C  0.36799512  0.39630812  0.26177151    -0.03190
C606        C  0.37725339  0.38719533  0.28223839    -0.07630
C607        C  0.37230639  0.36161939  0.27978651     0.05890
C608        C  0.35733063  0.34481065  0.25648006    -0.02660
Br609      Br  0.35065926  0.30993626  0.25038074    -0.02350
H610        H  0.33767772  0.34091484  0.21759135     0.09810
H611        H  0.38825633  0.40016851  0.30037901     0.07820
Br612      Br  0.37472766  0.43122284  0.26854668    -0.02780
O613        O  0.36787018  0.33180871  0.81168388    -0.75550
O614        O  0.40689079  0.36863193  0.81034881    -0.54460
C615        C  0.38307187  0.35330629  0.80182904     0.78180
O616        O  0.36903951  0.33681812  0.94729261    -0.60150
O617        O  0.37051158  0.30027971  0.95388026    -0.53180
C618        C  0.36178796  0.31636980  0.95928051     0.70190
O619        O  0.41378395  0.40172113  0.90049574    -0.74710
O620        O  0.43193488  0.40672568  0.85818014    -0.55280
C621        C  0.42437108  0.41443156  0.87991170     0.76190
O622        O  0.34099276  0.26638859  0.86518447    -0.59860
O623        O  0.35616635  0.25900454  0.90510474    -0.52980
C624        C  0.33901282  0.25268106  0.88500852     0.72780
Zr625      Zr  0.37043278  0.30696628  0.84808152     2.54710
O626        O  0.32776784  0.30369311  0.84957542    -0.80420
O627        O  0.35735693  0.27517894  0.80764696    -0.93840
Zr628      Zr  0.39786952  0.35914679  0.91282011     2.64680
O629        O  0.36150634  0.36602774  0.90308452    -0.98790
O630        O  0.41080153  0.38698896  0.95640546    -0.80860
O631        O  0.39210215  0.35129505  0.86389488    -0.84210
O632        O  0.37455560  0.31479692  0.89737518    -2.18920
O633        O  0.42386533  0.26524933  0.86358518    -0.67600
O634        O  0.40276910  0.25884146  0.90411615    -0.52170
C635        C  0.41257344  0.25184313  0.88367607     0.71170
O636        O  0.49252756  0.39682768  0.89361317    -0.60510
O637        O  0.47701440  0.40536107  0.85519350    -0.52490
C638        C  0.49451049  0.41090343  0.87432178     0.72970
O639        O  0.46903442  0.33519150  0.94627579    -0.71910
O640        O  0.43058111  0.29985700  0.95403764    -0.50580
C641        C  0.45557609  0.31535549  0.95896435     0.74350
O642        O  0.46523426  0.33260628  0.81265678    -0.67240
O643        O  0.45962606  0.36715365  0.80859531    -0.54430
C644        C  0.47021899  0.35339093  0.80175509     0.72730
Zr645      Zr  0.43604065  0.30621781  0.84703205     2.77540
O646        O  0.47458380  0.30135042  0.84679325    -0.97980
O647        O  0.41674699  0.27671085  0.80498535    -0.78810
Zr648      Zr  0.46300301  0.35769608  0.91182877     2.70070
O649        O  0.50636108  0.36280310  0.90995655    -0.80050
O650        O  0.47570912  0.38863075  0.95298915    -0.99140
Zr651      Zr  0.43447669  0.36823889  0.84715040     2.21500
Zr652      Zr  0.39885177  0.29686960  0.91647476     2.11130
O653        O  0.44050708  0.31344035  0.89641336    -2.47820
O654        O  0.45947842  0.35027838  0.86294725    -0.79850
O655        O  0.39471599  0.28939291  0.86633612    -0.72040
O656        O  0.43990162  0.37682852  0.89641160    -2.33000
O657        O  0.41187006  0.32405401  0.82922649    -2.29210
O658        O  0.42204711  0.34164870  0.93193679    -0.73800
H659        H  0.35713446  0.30699139  0.90384668     0.78200
H660        H  0.45006133  0.39496204  0.90267744     0.79280
H661        H  0.44975802  0.30515087  0.90273461     0.81510
H662        H  0.41069691  0.32208586  0.80913253     0.79120
H663        H  0.43000809  0.39720368  0.95639704     0.42150
H664        H  0.46534495  0.37841976  0.96791418     0.41120
H665        H  0.00633601  0.35415483  0.89152680     0.40800
H666        H  0.47716365  0.29834075  0.86608727     0.38730
H667        H  0.40008012  0.26268017  0.81070218     0.41870
H668        H  0.36901444  0.28443159  0.79299483     0.36650
H669        H  0.33131487  0.32172238  0.85042995     0.42770
H670        H  0.34699959  0.34871085  0.89643375     0.39180
H671        H  0.46904147  0.28461561  0.83570198     0.44100
H672        H  0.34007515  0.27226610  0.80137277     0.42820
H673        H  0.35666764  0.37035804  0.92154233     0.42960
H674        H  0.49377924  0.39300889  0.95798092     0.43320
O675        O  0.42693285  0.15547601  0.89886104    -0.75550
O676        O  0.40660058  0.14043071  0.85569512    -0.54460
C677        C  0.41626687  0.15753659  0.87681228     0.78180
O678        O  0.48285332  0.07211647  0.88411742    -0.60150
O679        O  0.46635869  0.05566492  0.92483399    -0.53180
C680        C  0.48252735  0.06057302  0.90548191     0.70190
O681        O  0.46909173  0.11804859  0.82533964    -0.74710
O682        O  0.43327775  0.12051838  0.81250416    -0.55280
C683        C  0.45713908  0.12558420  0.80977551     0.76190
O684        O  0.46046298  0.12895254  0.96021615    -0.59860
O685        O  0.45652229  0.08975359  0.96633664    -0.52980
C686        C  0.46634543  0.11436756  0.97269080     0.72780
Zr687      Zr  0.43459378  0.12462098  0.91968067     2.54710
O688        O  0.47509032  0.16555050  0.92204379    -0.80420
O689        O  0.41661124  0.14014460  0.95690923    -0.93840
Zr690      Zr  0.46110597  0.09265293  0.86371110     2.64680
O691        O  0.50433175  0.12931629  0.87591105    -0.98790
O692        O  0.47693712  0.07595849  0.82539240    -0.80860
O693        O  0.44218653  0.11932318  0.87201493    -0.84210
O694        O  0.45555568  0.09991297  0.91111168    -2.18920
O695        O  0.35750950  0.03044452  0.94723594    -0.67600
O696        O  0.39545514  0.03167346  0.95934943    -0.52170
C697        C  0.37063574  0.02245805  0.96080815     0.71170
O698        O  0.35928251  0.03284840  0.82585148    -0.60510
O699        O  0.37976245  0.06856955  0.80446595    -0.52490
C700        C  0.36452882  0.04401646  0.80367002     0.72970
O701        O  0.40126111  0.00260358  0.87610868    -0.71910
O702        O  0.42084252  0.01648252  0.91972354    -0.50580
C703        C  0.41117624  0.99995766  0.89827421     0.74350
O704        O  0.33853400  0.07112173  0.88370156    -0.67240
O705        O  0.35792133  0.09298282  0.84615394    -0.54430
C706        C  0.33871925  0.08220611  0.86192349     0.72730
Zr707      Zr  0.36623282  0.06223297  0.91306779     2.77540
O708        O  0.32011925  0.03024921  0.91132073    -0.97980
O709        O  0.35898697  0.08741855  0.95066014    -0.78810
Zr710      Zr  0.39167271  0.03165347  0.85486944     2.70070
O711        O  0.35268449  0.48956544  0.84942964    -0.80050
O712        O  0.40502925  0.01707499  0.81266160    -0.99140
Zr713      Zr  0.40087650  0.09744897  0.84725293     2.21500
Zr714      Zr  0.42734165  0.05927344  0.92751758     2.11130
O715        O  0.38577042  0.03659812  0.90270219    -2.47820
O716        O  0.37234481  0.05717229  0.86477173    -0.79850
O717        O  0.40720837  0.08480979  0.93825360    -0.72040
O718        O  0.42057597  0.07130021  0.83792092    -2.33000
O719        O  0.39339642  0.10263330  0.89585080    -2.29210
O720        O  0.43270160  0.05246526  0.87913213    -0.73800
H721        H  0.47268713  0.10814806  0.92019117     0.78200
H722        H  0.42292750  0.06902431  0.81831041     0.79280
H723        H  0.37532505  0.01928096  0.90773648     0.81510
H724        H  0.38478628  0.11272647  0.89864095     0.79120
H725        H  0.46165966  0.05928469  0.81830895     0.42150
H726        H  0.41659380  0.01087093  0.81936357     0.41120
H727        H  0.34135119  0.99068328  0.86387429     0.40800
H728        H  0.31940415  0.01337329  0.90766933     0.38730
H729        H  0.36077024  0.08029726  0.96775740     0.41870
H730        H  0.40121715  0.13964367  0.94807874     0.36650
H731        H  0.48667684  0.16189952  0.91007739     0.42770
H732        H  0.51131020  0.12433652  0.89143628     0.39180
H733        H  0.31476830  0.03069179  0.93066063     0.44100
H734        H  0.42939855  0.15875635  0.96068409     0.42820
H735        H  0.01478611  0.12913176  0.86002914     0.42960
H736        H  0.38912579  0.00121860  0.80497478     0.43320
O737        O  0.00812009  0.41287100  0.63272940    -0.75550
O738        O  0.02932535  0.43406812  0.67448833    -0.54460
C739        C  0.01002193  0.42512962  0.65656189     0.78180
O740        O  0.07068045  0.33860740  0.62487539    -0.60150
O741        O  0.08834976  0.35154120  0.58315610    -0.53180
C742        C  0.07923105  0.33498490  0.60151711     0.70190
O743        O  0.04388494  0.37077036  0.69538146    -0.74710
O744        O  0.05133806  0.41117166  0.70909505    -0.55280
C745        C  0.04143509  0.38708224  0.71238266     0.76190
O746        O  0.01981438  0.36676928  0.56430986    -0.59860
O747        O  0.05487957  0.36493745  0.54730976    -0.52980
C748        C  0.03001918  0.35732624  0.54698733     0.72780
Zr749      Zr  0.03267669  0.39807364  0.60441598     2.54710
O750        O  0.48933806  0.36363351  0.61230504    -0.80420
O751        O  0.01739571  0.41524274  0.56949312    -0.93840
Zr752      Zr  0.06572033  0.37139831  0.65250381     2.64680
O753        O  0.02454977  0.33131546  0.65261165    -0.98790
O754        O  0.08887114  0.35914080  0.68420976    -0.80860
O755        O  0.04303170  0.39443306  0.65041558    -0.84210
O756        O  0.05436348  0.37381916  0.60628689    -2.18920
O757        O  0.11311715  0.46193079  0.55695975    -0.67600
O758        O  0.10927217  0.42291696  0.54111874    -0.52170
C759        C  0.11515465  0.44666363  0.53825200     0.71170
O760        O  0.14244345  0.46262375  0.69281963    -0.60510
O761        O  0.10625394  0.46441299  0.70612950    -0.52490
C762        C  0.13050375  0.47108290  0.70900168     0.72970
O763        O  0.15789515  0.42225236  0.61970420    -0.71910
O764        O  0.13727128  0.40027430  0.57802861    -0.50580
C765        C  0.15740380  0.41119302  0.59549517     0.74350
O766        O  0.09476929  0.49514402  0.63380710    -0.67240
O767        O  0.07640832  0.47958689  0.67428189    -0.54430
C768        C  0.08584259  0.49733467  0.65770029     0.72730
Zr769      Zr  0.09898865  0.46227571  0.60318651     2.77540
O770        O  0.14161311  0.50083328  0.60432387    -0.97980
O771        O  0.07778161  0.47910897  0.57493406    -0.78810
Zr772      Zr  0.13216125  0.43491717  0.64926074     2.70070
O773        O  0.17037903  0.47637559  0.64422144    -0.80050
O774        O  0.15302533  0.41965740  0.68019229    -0.99140
Zr775      Zr  0.07150835  0.43688668  0.67127997     2.21500
Zr776      Zr  0.09289201  0.39496129  0.58072630     2.11130
O777        O  0.12091321  0.43788758  0.60307823    -2.47820
O778        O  0.11077925  0.45931183  0.64859509    -0.79850
O779        O  0.07120792  0.41997895  0.58032283    -0.72040
O780        O  0.09408473  0.41330596  0.67429576    -2.33000
O781        O  0.05988454  0.44047627  0.62531478    -2.29210
O782        O  0.10413224  0.39268612  0.62791055    -0.73800
H783        H  0.04334437  0.35622772  0.59844521     0.78200
H784        H  0.09842318  0.41271868  0.69341354     0.79280
H785        H  0.13661363  0.44635919  0.59311949     0.81510
H786        H  0.05117049  0.45050713  0.62516782     0.79120
H787        H  0.08737433  0.36630719  0.70291908     0.42150
H788        H  0.14759986  0.40185720  0.67213360     0.41120
H789        H  0.16466132  0.48926743  0.64829401     0.40800
H790        H  0.15293971  0.49501733  0.59494284     0.38730
H791        H  0.06534812  0.46407105  0.56217131     0.41870
H792        H  0.01861449  0.43111115  0.57913809     0.36650
H793        H  0.49198301  0.35519566  0.62776599     0.42770
H794        H  0.01731854  0.32705955  0.63316495     0.39180
H795        H  0.13948507  0.01156437  0.59120365     0.44100
H796        H  0.99848203  0.40297205  0.56691071     0.42820
H797        H  0.02934220  0.31802194  0.65576444     0.42960
H798        H  0.17177573  0.42968961  0.67677200     0.43320
O799        O  0.14982602  0.11954161  0.82461118    -0.75550
O800        O  0.18693866  0.11960219  0.81140794    -0.54460
C801        C  0.16835047  0.12488264  0.80818018     0.78180
O802        O  0.17213992  0.13095527  0.96133402    -0.60150
O803        O  0.13592714  0.09247661  0.96713553    -0.53180
C804        C  0.15154670  0.11684348  0.97374691     0.70190
O805        O  0.23103117  0.15646459  0.89874767    -0.74710
O806        O  0.23440096  0.14087801  0.85492973    -0.55280
C807        C  0.24248607  0.15816517  0.87593097     0.76190
O808        O  0.09150352  0.07746005  0.88668787    -0.59860
O809        O  0.09149888  0.06039226  0.92705152    -0.52980
C810        C  0.08037153  0.06593936  0.90812162     0.72780
Zr811      Zr  0.13339871  0.09702665  0.86520221     2.54710
O812        O  0.13136103  0.13613749  0.87848584    -0.80420
O813        O  0.09751183  0.08170011  0.83055561    -0.93840
Zr814      Zr  0.19276589  0.12603555  0.92028188     2.64680
O815        O  0.19580219  0.16827188  0.92311962    -0.98790
O816        O  0.22666859  0.13962632  0.95687499    -0.80860
O817        O  0.17929497  0.12148776  0.87280995    -0.84210
O818        O  0.14695618  0.10324537  0.91230948    -2.18920
O819        O  0.09846207  0.00680324  0.87517343    -0.67600
O820        O  0.09440526  0.02055736  0.91951041    -0.52170
C821        C  0.08643270  0.00470807  0.89745925     0.71170
O822        O  0.23112243  0.06908736  0.88267960    -0.60510
O823        O  0.23451569  0.09238666  0.84610375    -0.52490
C824        C  0.24228563  0.08054929  0.86122628     0.72970
O825        O  0.17206022  0.03045930  0.94676585    -0.71910
O826        O  0.13681602  0.03394301  0.95970902    -0.50580
C827        C  0.15161233  0.02376006  0.96102782     0.74350
O828        O  0.17187767  0.03299670  0.82798045    -0.67240
O829        O  0.18868711  0.06814076  0.80547454    -0.54430
C830        C  0.17873203  0.04355826  0.80548386     0.72730
Zr831      Zr  0.13787002  0.03379485  0.85434098     2.77540
O832        O  0.12661874  0.48879519  0.84438498    -0.97980
O833        O  0.11182785  0.02425631  0.81127692    -0.78810
Zr834      Zr  0.19485015  0.06125600  0.91193813     2.70070
O835        O  0.20370190  0.02553265  0.90896035    -0.80050
O836        O  0.22872200  0.08415748  0.94887311    -0.99140
Zr837      Zr  0.19671188  0.09796883  0.84741777     2.21500
Zr838      Zr  0.13296504  0.06190128  0.92791762     2.11130
O839        O  0.14936161  0.03746315  0.90209637    -2.47820
O840        O  0.18296963  0.05689861  0.86398400    -0.79850
O841        O  0.12014519  0.05627417  0.87985819    -0.72040
O842        O  0.20992989  0.10245290  0.89570313    -2.33000
O843        O  0.15063479  0.07426294  0.83840208    -2.29210
O844        O  0.17876128  0.08548390  0.93802211    -0.73800
H845        H  0.13882688  0.11210620  0.92167175     0.78200
H846        H  0.22866602  0.11190972  0.89822005     0.79280
H847        H  0.14183453  0.02008295  0.90720392     0.81510
H848        H  0.14600304  0.07243184  0.81883127     0.79120
H849        H  0.24098839  0.13847458  0.94754981     0.42150
H850        H  0.21936833  0.07994270  0.96628351     0.41120
H851        H  0.19046130  0.01251374  0.89498094     0.40800
H852        H  0.12611889  0.48256200  0.86281016     0.38730
H853        H  0.09644169  0.02554948  0.81707982     0.41870
H854        H  0.10325143  0.07570310  0.81368116     0.36650
H855        H  0.14914188  0.15035535  0.87608546     0.42770
H856        H  0.17769652  0.16477400  0.92484011     0.39180
H857        H  0.10830307  0.47958035  0.83697750     0.44100
H858        H  0.09746161  0.09743419  0.82580082     0.42820
H859        H  0.20460551  0.17689261  0.94152026     0.42960
H860        H  0.23860104  0.07475769  0.94833105     0.43320
O861        O  0.03484121  0.17820810  0.70832398    -0.75550
O862        O  0.04283834  0.14797480  0.72508869    -0.54460
C863        C  0.03083600  0.16112651  0.72515594     0.78180
O864        O  0.03061034  0.14659707  0.57668696    -0.60150
O865        O  0.06714713  0.18173975  0.56426861    -0.53180
C866        C  0.04343413  0.16323339  0.55989546     0.70190
O867        O  0.00830942  0.10143026  0.64763903    -0.74710
O868        O  0.02560854  0.10125444  0.68959536    -0.55280
C869        C  0.00690998  0.09191607  0.67067372     0.76190
O870        O  0.07117685  0.23355638  0.64164971    -0.59860
O871        O  0.09214599  0.23202613  0.60245350    -0.52980
C872        C  0.08150383  0.24210993  0.61849680     0.72780
Zr873      Zr  0.06510774  0.19967624  0.67196203     2.54710
O874        O  0.02865228  0.20782063  0.67232477    -0.80420
O875        O  0.08799898  0.23556351  0.70783266    -0.93840
Zr876      Zr  0.03624390  0.13567977  0.62134320     2.64680
O877        O  0.49481912  0.13512912  0.62284149    -0.98790
O878        O  0.01819878  0.09654812  0.58925477    -0.80860
O879        O  0.04321483  0.15391433  0.66766002    -0.84210
O880        O  0.05703711  0.18118233  0.62496038    -2.18920
O881        O  0.15969584  0.23654825  0.64671367    -0.67600
O882        O  0.14119688  0.23121118  0.60326040    -0.52170
C883        C  0.15990081  0.24325615  0.62190185     0.71170
O884        O  0.09927352  0.10469856  0.65247157    -0.60510
O885        O  0.07568652  0.10207808  0.69044749    -0.52490
C886        C  0.08840692  0.09431127  0.67427768     0.72970
O887        O  0.12124011  0.14872748  0.58103165    -0.71910
O888        O  0.11775382  0.18205679  0.56611051    -0.50580
C889        C  0.12452526  0.16454779  0.56332979     0.74350
O890        O  0.14051870  0.17969108  0.71201908    -0.67240
O891        O  0.10227264  0.14738239  0.72598762    -0.54430
C892        C  0.12733230  0.16123681  0.72729614     0.72730
Zr893      Zr  0.13213184  0.20168968  0.67575951     2.77540
O894        O  0.17750250  0.21268598  0.68167259    -0.97980
O895        O  0.14092044  0.23621073  0.71206428    -0.78810
Zr896      Zr  0.10327453  0.13773787  0.62501823     2.70070
O897        O  0.14638435  0.14228595  0.62873411    -0.80050
O898        O  0.08452150  0.09738241  0.59483752    -0.99140
Zr899      Zr  0.06900206  0.13980691  0.69067468     2.21500
Zr900      Zr  0.09799052  0.19473176  0.60455537     2.11130
O901        O  0.12559620  0.18329406  0.62877294    -2.47820
O902        O  0.11044939  0.15603054  0.67125236    -0.79850
O903        O  0.10585258  0.21426866  0.65170011    -0.72040
O904        O  0.06192131  0.12171129  0.64352330    -2.33000
O905        O  0.09113178  0.18652883  0.69652717    -2.29210
O906        O  0.07631881  0.14893714  0.60047033    -0.73800
H907        H  0.04664620  0.18659813  0.61506134     0.78200
H908        H  0.05314855  0.10309353  0.64206643     0.79280
H909        H  0.14212611  0.18942543  0.62031696     0.81510
H910        H  0.09347908  0.19273290  0.71603612     0.79120
H911        H  0.02853668  0.08825400  0.59356286     0.42150
H912        H  0.07710508  0.10064854  0.57827309     0.41120
H913        H  0.15566832  0.15617873  0.64403422     0.40800
H914        H  0.18281125  0.21051482  0.66266746     0.38730
H915        H  0.14524299  0.25135954  0.70187406     0.41870
H916        H  0.07813159  0.22954125  0.72467646     0.36650
H917        H  0.01635046  0.19535692  0.65730550     0.42770
H918        H  0.49923789  0.15320367  0.62136481     0.39180
H919        H  0.18719234  0.23152191  0.68713906     0.44100
H920        H  0.08421146  0.24900713  0.70241577     0.42820
H921        H  0.48541317  0.12566639  0.60493343     0.42960
H922        H  0.09969009  0.09613160  0.58810747     0.43320
O923        O  0.32162287  0.46405968  0.68976625    -0.75550
O924        O  0.35877563  0.46476332  0.70442803    -0.54460
C925        C  0.34162346  0.47206568  0.70662064     0.78180
O926        O  0.26627882  0.34031700  0.62769013    -0.60150
O927        O  0.26208947  0.35087535  0.58421372    -0.53180
C928        C  0.25363984  0.33635969  0.60447319     0.70190
O929        O  0.32734910  0.37250506  0.69714361    -0.74710
O930        O  0.36160708  0.41278037  0.70899730    -0.55280
C931        C  0.34677350  0.38912562  0.71348641     0.76190
O932        O  0.26606818  0.42229733  0.61553441    -0.59860
O933        O  0.26291341  0.39773975  0.57532062    -0.52980
C934        C  0.25446484  0.40974793  0.59207630     0.72780
Zr935      Zr  0.30380843  0.43538454  0.64652958     2.54710
O936        O  0.26747279  0.41889246  0.67685755    -0.80420
O937        O  0.30115387  0.47385670  0.63962879    -0.93840
Zr938      Zr  0.30635516  0.37154559  0.65289893     2.64680
O939        O  0.27431969  0.36023883  0.68823212    -0.98790
O940        O  0.30524527  0.33021404  0.65024146    -0.80860
O941        O  0.31980784  0.41403122  0.67309562    -0.84210
O942        O  0.28938323  0.39268414  0.62726165    -2.18920
O943        O  0.34769388  0.45942645  0.55415732    -0.67600
O944        O  0.31206899  0.42041378  0.53960610    -0.52170
C945        C  0.32964665  0.44412497  0.53614780     0.71170
O946        O  0.40610561  0.41478508  0.63139371    -0.60510
O947        O  0.40576380  0.43556858  0.67322927    -0.52490
C948        C  0.41654321  0.42743925  0.65511234     0.72970
O949        O  0.34485197  0.36212462  0.56647998    -0.71910
O950        O  0.30953153  0.36224291  0.54750562    -0.50580
C951        C  0.32593857  0.35364581  0.54823198     0.74350
O952        O  0.40112582  0.49224404  0.62892039    -0.67240
O953        O  0.40281114  0.47966310  0.67169584    -0.54430
C954        C  0.41139731  0.49612260  0.65369063     0.72730
Zr955      Zr  0.36371257  0.45944389  0.59945850     2.77540
O956        O  0.40112213  0.47326748  0.57068315    -0.97980
O957        O  0.36049115  0.49821890  0.59720705    -0.78810
Zr958      Zr  0.36511989  0.39556124  0.60452256     2.70070
O959        O  0.39620797  0.40774897  0.56816576    -0.80050
O960        O  0.37406209  0.36217679  0.61738260    -0.99140
Zr961      Zr  0.36575383  0.43693665  0.66980754     2.21500
Zr962      Zr  0.30195330  0.39289142  0.57973970     2.11130
O963        O  0.34856809  0.41660337  0.57847537    -2.47820
O964        O  0.38064569  0.43839821  0.62393526    -0.79850
O965        O  0.31764200  0.43629296  0.60036991    -0.72040
O966        O  0.35192412  0.39388689  0.65053832    -2.33000
O967        O  0.34947782  0.45904993  0.64484998    -2.29210
O968        O  0.31928369  0.37208018  0.60630626    -0.73800
H969        H  0.27070297  0.38381719  0.62797072     0.78200
H970        H  0.35996002  0.38611871  0.66056152     0.79280
H971        H  0.35379920  0.41674753  0.55954624     0.81510
H972        H  0.35610365  0.47663149  0.65282020     0.79120
H973        H  0.32316637  0.33456191  0.65590840     0.42150
H974        H  0.35672576  0.34671243  0.61792293     0.41120
H975        H  0.40585146  0.42683974  0.57062483     0.40800
H976        H  0.39467887  0.46104646  0.55360161     0.38730
H977        H  0.34159934  0.49214063  0.59705289     0.41870
H978        H  0.31867566  0.48847548  0.64542315     0.36650
H979        H  0.27497018  0.41791259  0.69476125     0.42770
H980        H  0.26546811  0.37021605  0.68501782     0.39180
H981        H  0.40403482  0.48980793  0.56457618     0.44100
H982        H  0.28980042  0.47467980  0.65421553     0.42820
H983        H  0.26108978  0.34203038  0.68268971     0.42960
H984        H  0.38204229  0.35834634  0.60100742     0.43320
C985        C  0.46012221  0.06720599  0.65847719    -0.09420
C986        C  0.48131141  0.06876012  0.67360825     0.06780
C987        C  0.47778304  0.04679791  0.68580666    -0.03190
C988        C  0.45444382  0.02330786  0.67994199    -0.07630
C989        C  0.43457606  0.02143797  0.66201755     0.05890
C990        C  0.43729850  0.04405769  0.65222693    -0.02660
Br991      Br  0.41101699  0.04537481  0.63003024    -0.02350
H992        H  0.46184259  0.08404398  0.64980338     0.09810
H993        H  0.45230977  0.50624010  0.68841654     0.07820
Br994      Br  0.00415031  0.04727281  0.70928169    -0.02780
C995        C  0.18962727  0.29023815  0.63120465    -0.09420
C996        C  0.18288822  0.26724492  0.61473138     0.06780
C997        C  0.19753400  0.26803556  0.59138532    -0.03190
C998        C  0.21974640  0.29132762  0.58626655    -0.07630
C999        C  0.22685238  0.31417508  0.60345265     0.05890
C1000       C  0.21068773  0.31356986  0.62515381    -0.02660
Br1001     Br  0.21676937  0.34435192  0.64743528    -0.02350
H1002       H  0.17805274  0.29014724  0.64857532     0.09810
H1003       H  0.23212265  0.29129289  0.56982040     0.07820
Br1004     Br  0.18919364  0.23747125  0.56739469    -0.02780
C1005       C  0.13754564  0.12847152  0.74243871    -0.09420
C1006       C  0.14194935  0.15385996  0.74611843     0.06780
C1007       C  0.15977346  0.17107233  0.76760332    -0.03190
C1008       C  0.17120677  0.16215478  0.78620351    -0.07630
C1009       C  0.16574991  0.13634339  0.78328951     0.05890
C1010       C  0.14934990  0.11974635  0.76058081    -0.02660
Br1011     Br  0.14008829  0.08404202  0.75541382    -0.02350
H1012       H  0.12422248  0.11508125  0.72578140     0.09810
H1013       H  0.18290705  0.17491595  0.80414146     0.07820
Br1014     Br  0.16673771  0.20598072  0.77420141    -0.02780
C1015       C  0.12090244  0.15168265  0.51297466    -0.09420
C1016       C  0.13599123  0.16026725  0.53803893     0.06780
C1017       C  0.15748321  0.15626743  0.54074183    -0.03190
C1018       C  0.16179380  0.14140254  0.51989903    -0.07630
C1019       C  0.14521441  0.13072933  0.99598706     0.05890
C1020       C  0.12576959  0.13741686  0.99170661    -0.02660
Br1021     Br  0.10630647  0.12864008  0.95684921    -0.02350
H1022       H  0.10442219  0.15471937  0.51055467     0.09810
H1023       H  0.17798120  0.13793738  0.52247888     0.07820
Br1024     Br  0.18057383  0.16948527  0.57342420    -0.02780
C1025       C  0.11636155  0.48448968  0.98026682    -0.09420
C1026       C  0.14317027  0.00152099  0.97853892     0.06780
C1027       C  0.16065759  0.99622667  0.49294584    -0.03190
C1028       C  0.15116601  0.47545509  0.50967075    -0.07630
C1029       C  0.12429330  0.45897969  0.51196375     0.05890
C1030       C  0.10701569  0.46338802  0.49619065    -0.02660
Br1031     Br  0.07005906  0.44236797  0.49816631    -0.02350
H1032       H  0.10238277  0.48778176  0.96941743     0.09810
H1033       H  0.16487798  0.47343100  0.52267534     0.07820
Br1034     Br  0.19762282  0.01849246  0.49350065    -0.02780
C1035       C  0.15250720  0.48235508  0.75588372    -0.09420
C1036       C  0.14601025  0.49033614  0.73231124     0.06780
C1037       C  0.15460034  0.01670876  0.73123630    -0.03190
C1038       C  0.16738152  0.03439215  0.75455567    -0.07630
C1039       C  0.17206551  0.02619190  0.77921317     0.05890
C1040       C  0.16558649  0.49993723  0.77914879    -0.02660
Br1041     Br  0.17375648  0.48629340  0.80979940    -0.02350
H1042       H  0.14687895  0.46222201  0.75641960     0.09810
H1043       H  0.17248945  0.05434786  0.75376751     0.07820
Br1044     Br  0.14944094  0.02938145  0.69824976    -0.02780
C1045       C  0.06747970  0.04816835  0.68380977    -0.09420
C1046       C  0.08999092  0.07088681  0.67868726     0.06780
C1047       C  0.11204291  0.06920601  0.67036164    -0.03190
C1048       C  0.11006100  0.04517881  0.66329611    -0.07630
C1049       C  0.08709034  0.02229808  0.66678111     0.05890
C1050       C  0.06603733  0.02403007  0.67850694    -0.02660
Br1051     Br  0.03385500  0.49425176  0.68497446    -0.02350
H1052       H  0.05038314  0.04898543  0.69002984     0.09810
H1053       H  0.12666318  0.04441725  0.65496554     0.07820
Br1054     Br  0.14544038  0.09922126  0.66789792    -0.02780
C1055       C  0.10246665  0.30963259  0.59723880    -0.09420
C1056       C  0.07887073  0.30986827  0.59734320     0.06780
C1057       C  0.05590173  0.28674659  0.60150595    -0.03190
C1058       C  0.05705884  0.26488418  0.60796086    -0.07630
C1059       C  0.08085493  0.26510618  0.60959018     0.05890
C1060       C  0.10354591  0.28749284  0.60298363    -0.02660
Br1061     Br  0.13698297  0.28993983  0.60428073    -0.02350
H1062       H  0.12039102  0.32724525  0.59464488     0.09810
H1063       H  0.03927594  0.24768768  0.61199725     0.07820
Br1064     Br  0.02238708  0.28432489  0.59898944    -0.02780
C1065       C  0.18312895  0.39064114  0.57420345    -0.09420
C1066       C  0.18248638  0.41198069  0.58835887     0.06780
C1067       C  0.20653375  0.43349311  0.59866290    -0.03190
C1068       C  0.22955425  0.43268551  0.59667154    -0.07630
C1069       C  0.23009121  0.41058329  0.58541510     0.05890
C1070       C  0.20669379  0.38979367  0.57268201    -0.02660
Br1071     Br  0.20548807  0.35942664  0.55462479    -0.02350
H1072       H  0.16513853  0.37400710  0.56576872     0.09810
H1073       H  0.24731180  0.44937343  0.60559718     0.07820
Br1074     Br  0.21031227  0.46493628  0.61713961    -0.02780
C1075       C  0.44857645  0.42182726  0.68231365    -0.09420
C1076       C  0.44311342  0.43313740  0.66090067     0.06780
C1077       C  0.46181668  0.44551474  0.64150697    -0.03190
C1078       C  0.48454198  0.44417924  0.64196212    -0.07630
C1079       C  0.48909981  0.43089979  0.66174416     0.05890
C1080       C  0.47162953  0.42063704  0.68283892    -0.02660
Br1081     Br  0.47684722  0.40214811  0.71027751    -0.02350
H1082       H  0.43407495  0.41213271  0.69716446     0.09810
H1083       H  0.49818783  0.45244668  0.62590824     0.07820
Br1084     Br  0.45629050  0.46280072  0.61269859    -0.02780
C1085       C  0.03229241  0.14552361  0.51110224    -0.09420
C1086       C  0.02849085  0.15905970  0.53401221     0.06780
C1087       C  0.50465034  0.15892175  0.53570436    -0.03190
C1088       C  0.48425709  0.14346966  0.51610771    -0.07630
C1089       C  0.48728942  0.12812941  0.99448474     0.05890
C1090       C  0.01202572  0.13049048  0.99111360    -0.02660
Br1091     Br  0.01956284  0.11485621  0.95893587    -0.02350
H1092       H  0.05047835  0.14532727  0.50966862     0.09810
H1093       H  0.46587234  0.14320685  0.51790984     0.07820
Br1094     Br  0.49864633  0.17809159  0.56590216    -0.02780
C1095       C  0.46550963  0.13029755  0.75925259    -0.09420
C1096       C  0.47309304  0.14036483  0.78716081     0.06780
C1097       C  0.49918631  0.16002938  0.79355798    -0.03190
C1098       C  0.01758914  0.16723235  0.77305044    -0.07630
C1099       C  0.01043385  0.15568774  0.74564267     0.05890
C1100       C  0.48388167  0.13806975  0.73855753    -0.02660
Br1101     Br  0.47213586  0.12308592  0.70110243    -0.02350
H1102       H  0.44574161  0.11506405  0.75382152     0.09810
H1103       H  0.03771806  0.18135769  0.77873357     0.07820
Br1104     Br  0.01089003  0.17673064  0.83063074    -0.02780
C1105       C  0.36228257  0.47977886  0.97532772    -0.09420
C1106       C  0.35607062  0.99976018  0.97746269     0.06780
C1107       C  0.33564501  0.99668693  0.49469673    -0.03190
C1108       C  0.32385299  0.47559942  0.51090853    -0.07630
C1109       C  0.33142430  0.45658754  0.51013870     0.05890
C1110       C  0.35038618  0.45860416  0.49130892    -0.02660
Br1111     Br  0.36257384  0.43418556  0.48908911    -0.02350
H1112       H  0.37717397  0.48089699  0.96160260     0.09810
H1113       H  0.31031154  0.47532980  0.52609348     0.07820
Br1114     Br  0.32546261  0.02257125  0.49975624    -0.02780
C1115       C  0.32910253  0.48411985  0.75212245    -0.09420
C1116       C  0.34543860  0.49148770  0.72989205     0.06780
C1117       C  0.36525628  0.01738385  0.73025261    -0.03190
C1118       C  0.36982802  0.03498915  0.75355695    -0.07630
C1119       C  0.35475963  0.02724884  0.77687720     0.05890
C1120       C  0.33344622  0.00164780  0.77543214    -0.02660
Br1121     Br  0.30931327  0.98904712  0.80433549    -0.02350
H1122       H  0.31325189  0.46444489  0.75164766     0.09810
H1123       H  0.38611617  0.05441867  0.75395586     0.07820
Br1124     Br  0.38653023  0.02965692  0.69935753    -0.02780
C1125       C  0.03758769  0.05014219  0.88463860    -0.09420
C1126       C  0.05257038  0.05801946  0.90978250     0.06780
C1127       C  0.04081268  0.05943898  0.93479181    -0.03190
C1128       C  0.01618083  0.05743808  0.93353511    -0.07630
C1129       C  0.00315176  0.05368670  0.90775053     0.05890
C1130       C  0.01288421  0.04741550  0.88354832    -0.02660
Br1131     Br  0.99339405  0.03511103  0.84840691    -0.02350
H1132       H  0.04548115  0.04687075  0.86548213     0.09810
H1133       H  0.00809712  0.06060069  0.95255792     0.07820
Br1134     Br  0.05770018  0.06581290  0.97087957    -0.02780
C1135       C  0.28967704  0.10453709  0.85585522    -0.09420
C1136       C  0.26652727  0.08079003  0.85456818     0.06780
C1137       C  0.26752362  0.05771949  0.85154151    -0.03190
C1138       C  0.29150787  0.05863068  0.85180038    -0.07630
C1139       C  0.31466483  0.08232853  0.85515582     0.05890
C1140       C  0.31376716  0.10546311  0.85645900    -0.02660
Br1141     Br  0.34455381  0.13855992  0.86306973    -0.02350
H1142       H  0.28905529  0.12237838  0.85860779     0.09810
H1143       H  0.29209622  0.04076472  0.85077708     0.07820
Br1144     Br  0.23672218  0.02453643  0.84819194    -0.02780
C1145       C  0.46463611  0.31172964  0.50858046    -0.09420
C1146       C  0.47183665  0.31290124  0.98104030     0.06780
C1147       C  0.99852029  0.32138603  0.97641368    -0.03190
C1148       C  0.01774664  0.33423311  0.99823264    -0.07630
C1149       C  0.01072687  0.33690204  0.52543318     0.05890
C1150       C  0.48374384  0.32254535  0.53064902    -0.02660
Br1151     Br  0.47156484  0.31671834  0.56744515    -0.02350
H1152       H  0.44436188  0.30421205  0.51300054     0.09810
H1153       H  0.03808720  0.34344734  0.99355763     0.07820
Br1154     Br  0.00981326  0.31806789  0.93985180    -0.02780
C1155       C  0.49386406  0.34415483  0.76376574    -0.09420
C1156       C  0.48960372  0.36222674  0.78001392     0.06780
C1157       C  0.50430102  0.38850300  0.77525125    -0.03190
C1158       C  0.02173747  0.39584813  0.75415896    -0.07630
C1159       C  0.02512170  0.37775361  0.73680726     0.05890
C1160       C  0.01128678  0.35151819  0.74234926    -0.02660
Br1161     Br  0.01455092  0.32428134  0.72203454    -0.02350
H1162       H  0.48315187  0.32397484  0.76733510     0.09810
H1163       H  0.03228560  0.41612422  0.75100298     0.07820
Br1164     Br  0.50260931  0.41617637  0.79659482    -0.02780
C1165       C  0.40186498  0.43649156  0.87100627    -0.09420
C1166       C  0.42485528  0.43841959  0.88111207     0.06780
C1167       C  0.44185247  0.45912233  0.90031371    -0.03190
C1168       C  0.43655246  0.47898216  0.90729967    -0.07630
C1169       C  0.41340423  0.47700928  0.89701998     0.05890
C1170       C  0.39529848  0.45482512  0.88016296    -0.02660
Br1171     Br  0.36041291  0.44710788  0.87124342    -0.02350
H1172       H  0.38768724  0.41925537  0.85830115     0.09810
H1173       H  0.45050496  0.99591925  0.92047907     0.07820
Br1174     Br  0.47099020  0.45998681  0.91905255    -0.02780
C1175       C  0.41168506  0.19180177  0.90356976    -0.09420
C1176       C  0.41385855  0.18082328  0.87744948     0.06780
C1177       C  0.41380411  0.19244749  0.85343722    -0.03190
C1178       C  0.41220394  0.21495652  0.85607155    -0.07630
C1179       C  0.41116658  0.22656434  0.88234826     0.05890
C1180       C  0.41061430  0.21454656  0.90630528    -0.02660
Br1181     Br  0.41025117  0.22859556  0.94353403    -0.02350
H1182       H  0.41122651  0.18284014  0.92225802     0.09810
H1183       H  0.41245239  0.22379662  0.83735413     0.07820
Br1184     Br  0.41785895  0.17997045  0.81685134    -0.02780
C1185       C  0.04018708  0.43569000  0.88895619    -0.09420
C1186       C  0.01859566  0.43536250  0.87633755     0.06780
C1187       C  0.01948768  0.45870227  0.87181009    -0.03190
C1188       C  0.04103816  0.48181451  0.88235039    -0.07630
C1189       C  0.06180146  0.48174157  0.89627461     0.05890
C1190       C  0.06166654  0.45862837  0.89889648    -0.02660
Br1191     Br  0.09125727  0.45748706  0.91352435    -0.02350
H1192       H  0.04011700  0.41786739  0.89168197     0.09810
H1193       H  0.04235391  0.99992149  0.87821503     0.07820
Br1194     Br  0.49294703  0.46062987  0.85084395    -0.02780
C1195       C  0.29017714  0.18137262  0.88088299    -0.09420
C1196       C  0.26719219  0.18176502  0.87495380     0.06780
C1197       C  0.26780083  0.20535372  0.87360449    -0.03250
C1198       C  0.29142029  0.22826689  0.87777629    -0.07630
C1199       C  0.31456620  0.22808517  0.88390633     0.05890
C1200       C  0.31385627  0.20436799  0.88546246    -0.02660
Br1201     Br  0.34441747  0.20205381  0.89269859    -0.02350
H1202       H  0.28955761  0.16317522  0.88276574     0.09810
H1203       H  0.29172588  0.24637506  0.87628758     0.07820
Br1204     Br  0.23677206  0.20707036  0.86644069    -0.02780
C1205       C  0.34732528  0.31026375  0.50822923    -0.09420
C1206       C  0.34267202  0.31346321  0.98088281     0.06780
C1207       C  0.32469844  0.32227005  0.97631991    -0.03190
C1208       C  0.31703214  0.33334801  0.49859081    -0.07630
C1209       C  0.32529421  0.33403399  0.52598003     0.05890
C1210       C  0.33780128  0.31939912  0.53055892    -0.02660
Br1211     Br  0.34228839  0.31098602  0.56676946    -0.02350
H1212       H  0.35982544  0.30235433  0.51245346     0.09810
H1213       H  0.30610381  0.34289836  0.49423500     0.07820
Br1214     Br  0.31155440  0.32129552  0.93962841    -0.02780
C1215       C  0.34822760  0.35392198  0.73587597    -0.09420
C1216       C  0.35374734  0.37974849  0.73785227     0.06780
C1217       C  0.36799886  0.39631020  0.76178044    -0.03190
C1218       C  0.37725688  0.38719653  0.78224594    -0.07630
C1219       C  0.37230915  0.36162030  0.77979200     0.05890
C1220       C  0.35733350  0.34481198  0.75648573    -0.02660
Br1221     Br  0.35066149  0.30993727  0.75038402    -0.02350
H1222       H  0.33768043  0.34091766  0.71759871     0.09810
H1223       H  0.38826010  0.40016901  0.80038687     0.07820
Br1224     Br  0.37473109  0.43122467  0.76855475    -0.02780
O1225       O  0.36786849  0.83180821  0.31168088    -0.75550
O1226       O  0.40688869  0.86863177  0.31034633    -0.54460
C1227       C  0.38306971  0.85330598  0.30182564     0.78180
O1228       O  0.36903915  0.83681669  0.44729187    -0.60150
O1229       O  0.37051314  0.80027910  0.45387910    -0.53180
C1230       C  0.36178897  0.81636857  0.45927988     0.70190
O1231       O  0.41378515  0.90172003  0.40049332    -0.74710
O1232       O  0.43193588  0.90672413  0.35817753    -0.55280
C1233       C  0.42437291  0.91443026  0.37990923     0.76190
O1234       O  0.34099254  0.76638852  0.36518398    -0.59860
O1235       O  0.35616630  0.75900399  0.40510391    -0.52980
C1236       C  0.33901266  0.75268083  0.38500793     0.72780
Zr1237     Zr  0.37043217  0.80696606  0.34807994     2.54710
O1238       O  0.32776743  0.80369320  0.34957512    -0.80420
O1239       O  0.35735621  0.77517850  0.30764568    -0.93840
Zr1240     Zr  0.39786915  0.85914582  0.41281918     2.64680
O1241       O  0.36150603  0.86602718  0.40308480    -0.98790
O1242       O  0.41080107  0.88698844  0.45640435    -0.80860
O1243       O  0.39210149  0.85129458  0.36389372    -0.84210
O1244       O  0.37455577  0.81479604  0.39737389    -2.18920
O1245       O  0.42386554  0.76524608  0.36358342    -0.67600
O1246       O  0.40277039  0.75883986  0.40411504    -0.52170
C1247       C  0.41257459  0.75184053  0.38367532     0.71170
O1248       O  0.49252709  0.89682694  0.39361263    -0.60510
O1249       O  0.47701360  0.90536000  0.35519291    -0.52490
C1250       C  0.49450982  0.91090263  0.37432126     0.72970
O1251       O  0.46903428  0.83519130  0.44627545    -0.71910
O1252       O  0.43058120  0.79985644  0.45403700    -0.50580
C1253       C  0.45557609  0.81535529  0.45896407     0.74350
O1254       O  0.46523408  0.83260563  0.31265673    -0.67240
O1255       O  0.45962533  0.86715254  0.30859404    -0.54430
C1256       C  0.47021874  0.85339017  0.30175472     0.72730
Zr1257     Zr  0.43603998  0.80621593  0.34703130     2.77540
O1258       O  0.47458396  0.80135000  0.34679315    -0.97980
O1259       O  0.41674651  0.77670958  0.30498430    -0.78810
Zr1260     Zr  0.46300259  0.85769515  0.41182775     2.70070
O1261       O  0.50636094  0.86280285  0.40995606    -0.80050
O1262       O  0.47570836  0.88863003  0.45298806    -0.99140
Zr1263     Zr  0.43447560  0.86823731  0.34714833     2.21500
Zr1264     Zr  0.39885202  0.79686834  0.41647328     2.11130
O1265       O  0.44050725  0.81343926  0.39641249    -2.47820
O1266       O  0.45947729  0.85027684  0.36294609    -0.79850
O1267       O  0.39471523  0.78939207  0.36633477    -0.72040
O1268       O  0.43990097  0.87682706  0.39640991    -2.33000
O1269       O  0.41186944  0.82405242  0.32922512    -2.29210
O1270       O  0.42204672  0.84164753  0.43193574    -0.73800
H1271       H  0.35713472  0.80699051  0.40384564     0.78200
H1272       H  0.45006102  0.89496051  0.40267592     0.79280
H1273       H  0.44975827  0.80514992  0.40273392     0.81510
H1274       H  0.41069629  0.82208419  0.30913117     0.79120
H1275       H  0.43000757  0.89720384  0.45639557     0.42150
H1276       H  0.46534423  0.87841909  0.46791315     0.41120
H1277       H  0.00633615  0.85415469  0.39152633     0.40800
H1278       H  0.47716368  0.79834023  0.36608717     0.38730
H1279       H  0.40007929  0.76267918  0.31070083     0.41870
H1280       H  0.36901330  0.78443122  0.29299329     0.36650
H1281       H  0.33131466  0.82172257  0.35043044     0.42770
H1282       H  0.34699849  0.84870999  0.39643641     0.39180
H1283       H  0.46904229  0.78461542  0.33570170     0.44100
H1284       H  0.34007417  0.77226525  0.30137189     0.42820
H1285       H  0.35666916  0.87035960  0.42154271     0.42960
H1286       H  0.49377853  0.89300841  0.45797995     0.43320
O1287       O  0.42691333  0.65545697  0.39887718    -0.75550
O1288       O  0.40659351  0.64041976  0.35570568    -0.54460
C1289       C  0.41625695  0.65752398  0.37682426     0.78180
O1290       O  0.48283342  0.57210436  0.38414083    -0.60150
O1291       O  0.46633194  0.55564027  0.42485182    -0.53180
C1292       C  0.48250577  0.56055647  0.40550150     0.70190
O1293       O  0.46908289  0.61803596  0.32536180    -0.74710
O1294       O  0.43326904  0.62050345  0.31252233    -0.55280
C1295       C  0.45713126  0.62556995  0.30979330     0.76190
O1296       O  0.46045291  0.62893549  0.46022668    -0.59860
O1297       O  0.45649491  0.58973284  0.46636929    -0.52980
C1298       C  0.46633053  0.61435088  0.47270879     0.72780
Zr1299     Zr  0.43456737  0.62459796  0.41970403     2.54710
O1300       O  0.47506848  0.66552307  0.42205528    -0.80420
O1301       O  0.41660066  0.64014389  0.45692823    -0.93840
Zr1302     Zr  0.46108449  0.59263755  0.36373734     2.64680
O1303       O  0.50430852  0.62930333  0.37593847    -0.98790
O1304       O  0.47691352  0.57594139  0.32541778    -0.80860
O1305       O  0.44216998  0.61931126  0.37203980    -0.84210
O1306       O  0.45552084  0.59988213  0.41113857    -2.18920
O1307       O  0.35741917  0.53035871  0.44723238    -0.67600
O1308       O  0.39537085  0.53160707  0.45935390    -0.52170
C1309       C  0.37054139  0.52235994  0.46079459     0.71170
O1310       O  0.35927303  0.53283581  0.32585945    -0.60510
O1311       O  0.37975962  0.56856151  0.30448205    -0.52490
C1312       C  0.36452547  0.54400830  0.30368069     0.72970
O1313       O  0.40125583  0.50259797  0.37612723    -0.71910
O1314       O  0.42082455  0.51646191  0.41974887    -0.50580
C1315       C  0.41116799  0.49994619  0.39829126     0.74350
O1316       O  0.33852183  0.57111419  0.38372630    -0.67240
O1317       O  0.35791139  0.59297061  0.34617544    -0.54430
C1318       C  0.33871020  0.58219823  0.36194640     0.72730
Zr1319     Zr  0.36620108  0.56220386  0.41309868     2.77540
O1320       O  0.32008152  0.53023196  0.41131245    -0.97980
O1321       O  0.35897215  0.58739486  0.45070016    -0.78810
Zr1322     Zr  0.39165300  0.53164044  0.35489415     2.70070
O1323       O  0.35266591  0.98955192  0.34944129    -0.80050
O1324       O  0.40502324  0.51707197  0.31269049    -0.99140
Zr1325     Zr  0.40086322  0.59743512  0.34727475     2.21500
Zr1326     Zr  0.42730586  0.55924434  0.42755560     2.11130
O1327       O  0.38574205  0.53657363  0.40272656    -2.47820
O1328       O  0.37232762  0.55716002  0.36480023    -0.79850
O1329       O  0.40717792  0.58478729  0.43828655    -0.72040
O1330       O  0.42055860  0.57128449  0.33794312    -2.33000
O1331       O  0.39337136  0.60260557  0.39587354    -2.29210
O1332       O  0.43267531  0.55245304  0.37916697    -0.73800
H1333       H  0.47265274  0.60811568  0.42021619     0.78200
H1334       H  0.42291180  0.56900883  0.31833314     0.79280
H1335       H  0.37529633  0.51925299  0.40775042     0.81510
H1336       H  0.38476486  0.61270228  0.39866217     0.79120
H1337       H  0.46163354  0.55927196  0.31832827     0.42150
H1338       H  0.41658629  0.51086720  0.31939512     0.41120
H1339       H  0.34132912  0.49066614  0.36388358     0.40800
H1340       H  0.31935921  0.51335161  0.40767561     0.38730
H1341       H  0.36063382  0.58018877  0.46778395     0.41870
H1342       H  0.40120571  0.63964204  0.44809875     0.36650
H1343       H  0.48664796  0.66186980  0.41007926     0.42770
H1344       H  0.51128666  0.62432497  0.39146516     0.39180
H1345       H  0.31471232  0.53068063  0.43064330     0.44100
H1346       H  0.42939127  0.65875571  0.46069250     0.42820
H1347       H  0.01476421  0.62911899  0.36005776     0.42960
H1348       H  0.38912203  0.50121648  0.30499740     0.43320
O1349       O  0.00811900  0.91287082  0.13272947    -0.75550
O1350       O  0.02932392  0.93406847  0.17448837    -0.54460
C1351       C  0.01002051  0.92512960  0.15656175     0.78180
O1352       O  0.07068033  0.83860762  0.12487569    -0.60150
O1353       O  0.08834910  0.85154149  0.08315625    -0.53180
C1354       C  0.07923087  0.83498520  0.10151734     0.70190
O1355       O  0.04388460  0.87077033  0.19538172    -0.74710
O1356       O  0.05133735  0.91117155  0.20909524    -0.55280
C1357       C  0.04143471  0.88708216  0.21238288     0.76190
O1358       O  0.01981366  0.86676925  0.06430989    -0.59860
O1359       O  0.05487880  0.86493744  0.04730977    -0.52980
C1360       C  0.03001849  0.85732622  0.04698735     0.72780
Zr1361     Zr  0.03267567  0.89807357  0.10441618     2.54710
O1362       O  0.48933713  0.86363332  0.11230519    -0.80420
O1363       O  0.01739504  0.91524269  0.06949305    -0.93840
Zr1364     Zr  0.06571950  0.87139820  0.15250400     2.64680
O1365       O  0.02454926  0.83131509  0.15261188    -0.98790
O1366       O  0.08887091  0.85914099  0.18420955    -0.80860
O1367       O  0.04303090  0.89443305  0.15041573    -0.84210
O1368       O  0.05436205  0.87381880  0.10628723    -2.18920
O1369       O  0.11311701  0.96193098  0.05696008    -0.67600
O1370       O  0.10927111  0.92291680  0.04111903    -0.52170
C1371       C  0.11515426  0.94666365  0.03825233     0.71170
O1372       O  0.14244263  0.96262354  0.19282033    -0.60510
O1373       O  0.10625323  0.96441319  0.20612968    -0.52490
C1374       C  0.13050301  0.97108291  0.20900210     0.72970
O1375       O  0.15789163  0.92225202  0.11970457    -0.71910
O1376       O  0.13726837  0.90027475  0.07802846    -0.50580
C1377       C  0.15740026  0.91119336  0.09549538     0.74350
O1378       O  0.09476895  0.99514430  0.13380727    -0.67240
O1379       O  0.07640789  0.97958725  0.17428209    -0.54430
C1380       C  0.08584235  0.99733503  0.15770048     0.72730
Zr1381     Zr  0.09898778  0.96227581  0.10318661     2.77540
O1382       O  0.14161261  0.00083301  0.10432395    -0.97980
O1383       O  0.07778122  0.97910930  0.07493390    -0.78810
Zr1384     Zr  0.13215947  0.93491727  0.14926153     2.70070
O1385       O  0.17037697  0.97637600  0.14422272    -0.80050
O1386       O  0.15302468  0.91965780  0.18019206    -0.99140
Zr1387     Zr  0.07150711  0.93688678  0.17128029     2.21500
Zr1388     Zr  0.09289022  0.89496129  0.08072667     2.11130
O1389       O  0.12091187  0.93788747  0.10307873    -2.47820
O1390       O  0.11077792  0.95931208  0.14859547    -0.79850
O1391       O  0.07120663  0.91997917  0.08032286    -0.72040
O1392       O  0.09408327  0.91330587  0.17429638    -2.33000
O1393       O  0.05988361  0.94047625  0.12531492    -2.29210
O1394       O  0.10413111  0.89268630  0.12791077    -0.73800
H1395       H  0.04334299  0.85622736  0.09844551     0.78200
H1396       H  0.09842176  0.91271861  0.19341415     0.79280
H1397       H  0.13661235  0.94635903  0.09312007     0.81510
H1398       H  0.05116957  0.95050711  0.12516791     0.79120
H1399       H  0.08737417  0.86630727  0.20291896     0.42150
H1400       H  0.14759918  0.90185761  0.17213331     0.41120
H1401       H  0.16465906  0.98926770  0.14829510     0.40800
H1402       H  0.15293908  0.99501683  0.09494304     0.38730
H1403       H  0.06534784  0.96407144  0.06217100     0.41870
H1404       H  0.01861394  0.93111121  0.07913790     0.36650
H1405       H  0.49198221  0.85519526  0.12776585     0.42770
H1406       H  0.01731796  0.82705915  0.13316520     0.39180
H1407       H  0.13948482  0.51156420  0.09120367     0.44100
H1408       H  0.99848133  0.90297211  0.06691062     0.42820
H1409       H  0.02934194  0.81802173  0.15576456     0.42960
H1410       H  0.17177497  0.92969011  0.17677125     0.43320
O1411       O  0.14982511  0.61954101  0.32461135    -0.75550
O1412       O  0.18693812  0.61960218  0.31140823    -0.54460
C1413       C  0.16834978  0.62488240  0.30818046     0.78180
O1414       O  0.17213956  0.63095499  0.46133407    -0.60150
O1415       O  0.13592626  0.59247663  0.46713557    -0.53180
C1416       C  0.15154630  0.61684340  0.47374700     0.70190
O1417       O  0.23103059  0.65646438  0.39874766    -0.74710
O1418       O  0.23440060  0.64087779  0.35492985    -0.55280
C1419       C  0.24248571  0.65816496  0.37593108     0.76190
O1420       O  0.09149937  0.57746130  0.38668811    -0.59860
O1421       O  0.09149540  0.56039262  0.42705092    -0.52980
C1422       C  0.08036741  0.56594111  0.40812252     0.72780
Zr1423     Zr  0.13339645  0.59702573  0.36520240     2.54710
O1424       O  0.13136067  0.63613757  0.37848597    -0.80420
O1425       O  0.09751063  0.58169925  0.33055461    -0.93840
Zr1426     Zr  0.19276492  0.62603523  0.42028159     2.64680
O1427       O  0.19580188  0.66827180  0.42311938    -0.98790
O1428       O  0.22666773  0.63962572  0.45687462    -0.80860
O1429       O  0.17929320  0.62148687  0.37280988    -0.84210
O1430       O  0.14695492  0.60324513  0.41230942    -2.18920
O1431       O  0.09846171  0.50680284  0.37517366    -0.67600
O1432       O  0.09440382  0.52055680  0.41951033    -0.52170
C1433       C  0.08643193  0.50470750  0.39745922     0.71170
O1434       O  0.23112041  0.56908698  0.38267948    -0.60510
O1435       O  0.23451481  0.59238646  0.34610348    -0.52490
C1436       C  0.24228387  0.58054858  0.36122621     0.72970
O1437       O  0.17205975  0.53045952  0.44676603    -0.71910
O1438       O  0.13681513  0.53394280  0.45970865    -0.50580
C1439       C  0.15161178  0.52376018  0.46102779     0.74350
O1440       O  0.17187728  0.53299664  0.32798060    -0.67240
O1441       O  0.18868687  0.56814073  0.30547473    -0.54430
C1442       C  0.17873183  0.54355824  0.30548404     0.72730
Zr1443     Zr  0.13786947  0.53379478  0.35434110     2.77540
O1444       O  0.12661865  0.98879525  0.34438512    -0.97980
O1445       O  0.11182772  0.52425622  0.31127676    -0.78810
Zr1446     Zr  0.19484907  0.56125605  0.41193844     2.70070
O1447       O  0.20370133  0.52553296  0.40896059    -0.80050
O1448       O  0.22872150  0.58415750  0.44887293    -0.99140
Zr1449     Zr  0.19671115  0.59796874  0.34741790     2.21500
Zr1450     Zr  0.13296278  0.56190094  0.42791749     2.11130
O1451       O  0.14936051  0.53746338  0.40209665    -2.47820
O1452       O  0.18296903  0.55689854  0.36398418    -0.79850
O1453       O  0.12014328  0.55627327  0.37985796    -0.72040
O1454       O  0.20992937  0.60245291  0.39570324    -2.33000
O1455       O  0.15063390  0.57426284  0.33840250    -2.29210
O1456       O  0.17875941  0.58548348  0.43802185    -0.73800
H1457       H  0.13882592  0.61210621  0.42167179     0.78200
H1458       H  0.22866551  0.61190971  0.39822026     0.79280
H1459       H  0.14183358  0.52008319  0.40720416     0.81510
H1460       H  0.14600224  0.57243167  0.31883165     0.79120
H1461       H  0.24098768  0.63847439  0.44754929     0.42150
H1462       H  0.21936809  0.57994279  0.46628350     0.41120
H1463       H  0.19046088  0.51251401  0.39498109     0.40800
H1464       H  0.12611886  0.98256208  0.36281029     0.38730
H1465       H  0.09644148  0.52554934  0.31707945     0.41870
H1466       H  0.10325087  0.57570255  0.31368045     0.36650
H1467       H  0.14914175  0.65035493  0.37608538     0.42770
H1468       H  0.17769630  0.66477416  0.42484014     0.39180
H1469       H  0.10830298  0.97958026  0.33697762     0.44100
H1470       H  0.09746049  0.59743335  0.32579975     0.42820
H1471       H  0.20460542  0.67689250  0.44151995     0.42960
H1472       H  0.23860047  0.57475764  0.44833061     0.43320
O1473       O  0.03483829  0.67820726  0.20832889    -0.75550
O1474       O  0.04283504  0.64797276  0.22509061    -0.54460
C1475       C  0.03083200  0.66112421  0.22516024     0.78180
O1476       O  0.03061008  0.64659774  0.07668819    -0.60150
O1477       O  0.06714741  0.68174017  0.06426996    -0.53180
C1478       C  0.04343417  0.66323397  0.05989683     0.70190
O1479       O  0.00831301  0.60143180  0.14764064    -0.74710
O1480       O  0.02561180  0.60125690  0.18959761    -0.55280
C1481       C  0.00691386  0.59191843  0.17067585     0.76190
O1482       O  0.07117655  0.73355623  0.14165053    -0.59860
O1483       O  0.09214663  0.73202737  0.10245437    -0.52980
C1484       C  0.08150384  0.74211037  0.11849775     0.72780
Zr1485     Zr  0.06510665  0.69967610  0.17196429     2.54710
O1486       O  0.02865127  0.70782054  0.17232503    -0.80420
O1487       O  0.08799860  0.73556373  0.20783419    -0.93840
Zr1488     Zr  0.03624529  0.63568115  0.12134395     2.64680
O1489       O  0.49482003  0.63512967  0.12284192    -0.98790
O1490       O  0.01819989  0.59654938  0.08925548    -0.80860
O1491       O  0.04321433  0.65391451  0.16766138    -0.84210
O1492       O  0.05703884  0.68118369  0.12496169    -2.18920
O1493       O  0.15970147  0.73655391  0.14671292    -0.67600
O1494       O  0.14120137  0.73121590  0.10326021    -0.52170
C1495       C  0.15990680  0.74326216  0.12190059     0.71170
O1496       O  0.09927388  0.60469950  0.15247176    -0.60510
O1497       O  0.07568703  0.60207931  0.19044775    -0.52490
C1498       C  0.08840713  0.59431215  0.17427779     0.72970
O1499       O  0.12124009  0.64872791  0.08103168    -0.71910
O1500       O  0.11775489  0.68205789  0.06611066    -0.50580
C1501       C  0.12452551  0.66454826  0.06332977     0.74350
O1502       O  0.14051923  0.67969203  0.21201831    -0.67240
O1503       O  0.10227347  0.64738393  0.22598841    -0.54430
C1504       C  0.12733309  0.66123787  0.22729586     0.72730
Zr1505     Zr  0.13213394  0.70169266  0.17575880     2.77540
O1506       O  0.17750380  0.71268673  0.18167237    -0.97980
O1507       O  0.14092165  0.73621268  0.21206436    -0.78810
Zr1508     Zr  0.10327548  0.63773941  0.12501885     2.70070
O1509       O  0.14638481  0.64228640  0.12873463    -0.80050
O1510       O  0.08452169  0.59738366  0.09483829    -0.99140
Zr1511     Zr  0.06900315  0.63980898  0.19067616     2.21500
Zr1512     Zr  0.09799284  0.69473436  0.10455592     2.11130
O1513       O  0.12559805  0.68329599  0.12877280    -2.47820
O1514       O  0.11045032  0.65603309  0.17125264    -0.79850
O1515       O  0.10585219  0.71426972  0.15170118    -0.72040
O1516       O  0.06192258  0.62171294  0.14352455    -2.33000
O1517       O  0.09113337  0.68653079  0.19652777    -2.29210
O1518       O  0.07632038  0.64893937  0.10047099    -0.73800
H1519       H  0.04664771  0.68659921  0.11506258     0.78200
H1520       H  0.05314995  0.60309516  0.14206760     0.79280
H1521       H  0.14212789  0.68942734  0.12031670     0.81510
H1522       H  0.09348092  0.69273487  0.21603672     0.79120
H1523       H  0.02853732  0.58825487  0.09356394     0.42150
H1524       H  0.07710535  0.60064981  0.07827381     0.41120
H1525       H  0.15566901  0.65617918  0.14403468     0.40800
H1526       H  0.18281260  0.71051573  0.16266722     0.38730
H1527       H  0.14524345  0.75136153  0.20187452     0.41870
H1528       H  0.07813118  0.72954195  0.22467806     0.36650
H1529       H  0.01634995  0.69535690  0.15730539     0.42770
H1530       H  0.49923840  0.65320399  0.12136434     0.39180
H1531       H  0.18719425  0.73152255  0.18713936     0.44100
H1532       H  0.08421148  0.74900750  0.20241689     0.42820
H1533       H  0.48541386  0.62566615  0.10493422     0.42960
H1534       H  0.09969005  0.59613242  0.08810824     0.43320
O1535       O  0.32162197  0.96406322  0.18976957    -0.75550
O1536       O  0.35877512  0.96476548  0.20442896    -0.54460
C1537       C  0.34162313  0.97206814  0.20662288     0.78180
O1538       O  0.26628643  0.84032798  0.12766409    -0.60150
O1539       O  0.26209220  0.85090447  0.08419771    -0.53180
C1540       C  0.25364460  0.83637822  0.10445125     0.70190
O1541       O  0.32735244  0.87250592  0.19712356    -0.74710
O1542       O  0.36160510  0.91278097  0.20899173    -0.55280
C1543       C  0.34677280  0.88912444  0.21347382     0.76190
O1544       O  0.26606688  0.92230095  0.11552904    -0.59860
O1545       O  0.26291054  0.89775305  0.07530605    -0.52980
C1546       C  0.25446156  0.90975459  0.09206972     0.72780
Zr1547     Zr  0.30380692  0.93539182  0.14653137     2.54710
O1548       O  0.26746935  0.91888868  0.17685561    -0.80420
O1549       O  0.30114972  0.97386271  0.13963188    -0.93840
Zr1550     Zr  0.30635940  0.87155563  0.15287673     2.64680
O1551       O  0.27432314  0.86024954  0.18820875    -0.98790
O1552       O  0.30524979  0.83022404  0.15021365    -0.80860
O1553       O  0.31980767  0.91403431  0.17308906    -0.84210
O1554       O  0.28939104  0.89270035  0.12724202    -2.18920
O1555       O  0.34765687  0.95958358  0.05427619    -0.67600
O1556       O  0.31208412  0.92055499  0.03965160    -0.52170
C1557       C  0.32962418  0.94429952  0.03625137     0.71170
O1558       O  0.40610366  0.91479282  0.13138074    -0.60510
O1559       O  0.40576034  0.93556421  0.17322452    -0.52490
C1560       C  0.41653955  0.92743807  0.15510382     0.72970
O1561       O  0.34484038  0.86213146  0.06647684    -0.71910
O1562       O  0.30954767  0.86228354  0.04747518    -0.50580
C1563       C  0.32593833  0.85366607  0.04821735     0.74350
O1564       O  0.40113278  0.99226045  0.12893322    -0.67240
O1565       O  0.40281525  0.97966800  0.17170176    -0.54430
C1566       C  0.41140237  0.99613218  0.15370127     0.72730
Zr1567     Zr  0.36372054  0.95946856  0.09948080     2.77540
O1568       O  0.40108897  0.97323153  0.07065019    -0.97980
O1569       O  0.36054069  0.99826871  0.09725676    -0.78810
Zr1570     Zr  0.36512226  0.89558340  0.10450177     2.70070
O1571       O  0.39621124  0.90776107  0.06814610    -0.80050
O1572       O  0.37405594  0.86219417  0.11736491    -0.99140
Zr1573     Zr  0.36575496  0.93694116  0.16980697     2.21500
Zr1574     Zr  0.30196149  0.89292844  0.07971574     2.11130
O1575       O  0.34857773  0.91663906  0.07845821    -2.47820
O1576       O  0.38065277  0.93841475  0.12393763    -0.79850
O1577       O  0.31765177  0.93631629  0.10037958    -0.72040
O1578       O  0.35192692  0.89389682  0.15051907    -2.33000
O1579       O  0.34947854  0.95906138  0.14486547    -2.29210
O1580       O  0.31928706  0.87211059  0.10628049    -0.73800
H1581       H  0.27071077  0.88383129  0.12795039     0.78200
H1582       H  0.35996111  0.88612503  0.16053870     0.79280
H1583       H  0.35381021  0.91679670  0.05952827     0.81510
H1584       H  0.35610458  0.97664199  0.15283898     0.79120
H1585       H  0.32316609  0.83456952  0.15589925     0.42150
H1586       H  0.35671811  0.84673218  0.11790708     0.41120
H1587       H  0.40585510  0.92685196  0.07059970     0.40800
H1588       H  0.39459672  0.96104479  0.05354395     0.38730
H1589       H  0.34165545  0.99221519  0.09716392     0.41870
H1590       H  0.31866905  0.98848213  0.14543398     0.36650
H1591       H  0.27496888  0.91791652  0.19476176     0.42770
H1592       H  0.26547230  0.87022739  0.18499447     0.39180
H1593       H  0.40405677  0.98980928  0.06460076     0.44100
H1594       H  0.28979028  0.97468071  0.15421418     0.42820
H1595       H  0.26109304  0.84204123  0.18266608     0.42960
H1596       H  0.38203433  0.85836018  0.10099035     0.43320
C1597       C  0.46012735  0.56721183  0.15848315    -0.09420
C1598       C  0.48131613  0.56876416  0.17361218     0.06780
C1599       C  0.47778763  0.54680221  0.18581115    -0.03190
C1600       C  0.45444767  0.52331352  0.17994958    -0.07630
C1601       C  0.43457972  0.52144560  0.16202839     0.05890
C1602       C  0.43730302  0.54406513  0.15223557    -0.02660
Br1603     Br  0.41102474  0.54538648  0.13003764    -0.02350
H1604       H  0.46184855  0.58404991  0.14980868     0.09810
H1605       H  0.45231313  0.00624539  0.18842371     0.07820
Br1606     Br  0.00415450  0.54727484  0.20928358    -0.02780
C1607       C  0.18963702  0.79024765  0.13119844    -0.09420
C1608       C  0.18289596  0.76725268  0.11472744     0.06780
C1609       C  0.19753997  0.76804392  0.09137902    -0.03190
C1610       C  0.21974949  0.79133794  0.08625361    -0.07630
C1611       C  0.22685545  0.81418907  0.10343430     0.05890
C1612       C  0.21069424  0.81358079  0.12514175    -0.02660
Br1613     Br  0.21677666  0.84436080  0.14742745    -0.02350
H1614       H  0.17806585  0.79015727  0.14857222     0.09810
H1615       H  0.23212341  0.79130222  0.06980533     0.07820
Br1616     Br  0.18919992  0.73747710  0.06739305    -0.02780
C1617       C  0.13754601  0.62847205  0.24243832    -0.09420
C1618       C  0.14195013  0.65386068  0.24611789     0.06780
C1619       C  0.15977379  0.67107270  0.26760324    -0.03190
C1620       C  0.17120653  0.66215483  0.28620377    -0.07630
C1621       C  0.16574940  0.63634335  0.28328980     0.05890
C1622       C  0.14934972  0.61974653  0.26058078    -0.02660
Br1623     Br  0.14008810  0.58404216  0.25541372    -0.02350
H1624       H  0.12422296  0.61508191  0.22578087     0.09810
H1625       H  0.18290655  0.67491583  0.30414193     0.07820
Br1626     Br  0.16673794  0.70598100  0.27420150    -0.02780
C1627       C  0.12090235  0.65168245  0.01297459    -0.09420
C1628       C  0.13599119  0.66026722  0.03803884     0.06780
C1629       C  0.15748314  0.65626736  0.04074178    -0.03190
C1630       C  0.16179376  0.64140243  0.01989904    -0.07630
C1631       C  0.14521434  0.63072944  0.49598713     0.05890
C1632       C  0.12576958  0.63741701  0.49170668    -0.02660
Br1633     Br  0.10630637  0.62864015  0.45684932    -0.02350
H1634       H  0.10442210  0.65471917  0.01055456     0.09810
H1635       H  0.17798120  0.63793733  0.02247894     0.07820
Br1636     Br  0.18057385  0.66948543  0.07342410    -0.02780
C1637       C  0.11636138  0.98448976  0.48026687    -0.09420
C1638       C  0.14317003  0.50152119  0.47853894     0.06780
C1639       C  0.16065765  0.49622646  0.99294607    -0.03190
C1640       C  0.15116592  0.97545497  0.00967114    -0.07630
C1641       C  0.12429316  0.95897965  0.01196404     0.05890
C1642       C  0.10701569  0.96338799  0.99619071    -0.02660
Br1643     Br  0.07005902  0.94236799  0.99816625    -0.02350
H1644       H  0.10238249  0.98778175  0.46941758     0.09810
H1645       H  0.16487780  0.97343091  0.02267590     0.07820
Br1646     Br  0.19762285  0.51849236  0.99350100    -0.02780
C1647       C  0.15250681  0.98235507  0.25588390    -0.09420
C1648       C  0.14600966  0.99033615  0.23231157     0.06780
C1649       C  0.15460010  0.51670882  0.23123649    -0.03190
C1650       C  0.16738152  0.53439223  0.25455579    -0.07630
C1651       C  0.17206545  0.52619193  0.27921330     0.05890
C1652       C  0.16558631  0.99993722  0.27914889    -0.02660
Br1653     Br  0.17375618  0.98629323  0.30979938    -0.02350
H1654       H  0.14687848  0.96222198  0.25641976     0.09810
H1655       H  0.17248962  0.55434798  0.25376759     0.07820
Br1656     Br  0.14944089  0.52938151  0.19824984    -0.02780
C1657       C  0.06747962  0.54816884  0.18380962    -0.09420
C1658       C  0.08999087  0.57088736  0.17868717     0.06780
C1659       C  0.11204283  0.56920641  0.17036163    -0.03190
C1660       C  0.11006090  0.54517917  0.16329625    -0.07630
C1661       C  0.08709022  0.52229848  0.16678127     0.05890
C1662       C  0.06603720  0.52403050  0.17850695    -0.02660
Br1663     Br  0.03385486  0.99425202  0.18497431    -0.02350
H1664       H  0.05038310  0.54898594  0.19002949     0.09810
H1665       H  0.12666308  0.54441755  0.15496577     0.07820
Br1666     Br  0.14544039  0.59922150  0.16789794    -0.02780
C1667       C  0.10246668  0.80963289  0.09723917    -0.09420
C1668       C  0.07887073  0.80986859  0.09734338     0.06780
C1669       C  0.05590174  0.78674687  0.10150613    -0.03190
C1670       C  0.05705883  0.76488454  0.10796142    -0.07630
C1671       C  0.08085491  0.76510664  0.10959120     0.05890
C1672       C  0.10354593  0.78749319  0.10298434    -0.02660
Br1673     Br  0.13698303  0.78994001  0.10428152    -0.02350
H1674       H  0.12039106  0.82724551  0.09464516     0.09810
H1675       H  0.03927591  0.74768804  0.11199777     0.07820
Br1676     Br  0.02238706  0.78432503  0.09898932    -0.02780
C1677       C  0.18312447  0.89064242  0.07420368    -0.09420
C1678       C  0.18248216  0.91198184  0.08835918     0.06780
C1679       C  0.20652885  0.93349453  0.09866395    -0.03190
C1680       C  0.22954914  0.93268765  0.09667265    -0.07630
C1681       C  0.23008618  0.91058643  0.08541465     0.05890
C1682       C  0.20668931  0.88979581  0.07268177    -0.02660
Br1683     Br  0.20548370  0.85942837  0.05462524    -0.02350
H1684       H  0.16513407  0.87400812  0.06576929     0.09810
H1685       H  0.24730668  0.94937573  0.10559816     0.07820
Br1686     Br  0.21030767  0.96493754  0.11714082    -0.02780
C1687       C  0.44857059  0.92182183  0.18230663    -0.09420
C1688       C  0.44310854  0.93313182  0.16089255     0.06780
C1689       C  0.46181412  0.94551185  0.14150195    -0.03190
C1690       C  0.48454061  0.94417862  0.14196030    -0.07630
C1691       C  0.48909778  0.93089928  0.16174297     0.05890
C1692       C  0.47162534  0.92063447  0.18283552    -0.02660
Br1693     Br  0.47684420  0.90214842  0.21027685    -0.02350
H1694       H  0.43406805  0.91212657  0.19715622     0.09810
H1695       H  0.49818822  0.95244801  0.12590840     0.07820
Br1696     Br  0.45629114  0.96280141  0.11269533    -0.02780
C1697       C  0.03229557  0.64552478  0.01110361    -0.09420
C1698       C  0.02849171  0.65905974  0.03401286     0.06780
C1699       C  0.50465146  0.65892286  0.03570181    -0.03190
C1700       C  0.48426186  0.64347649  0.01609896    -0.07630
C1701       C  0.48728102  0.62811838  0.49449557     0.05890
C1702       C  0.01201896  0.63048468  0.49111694    -0.02660
Br1703     Br  0.01955355  0.61485174  0.45893614    -0.02350
H1704       H  0.05048054  0.64532608  0.00967370     0.09810
H1705       H  0.46587763  0.64321526  0.01789743     0.07820
Br1706     Br  0.49864423  0.67808945  0.06590060    -0.02780
C1707       C  0.46550440  0.63028468  0.25926452    -0.09420
C1708       C  0.47308724  0.64034974  0.28717435     0.06780
C1709       C  0.49918029  0.66001764  0.29356849    -0.03190
C1710       C  0.01758253  0.66722500  0.27305872    -0.07630
C1711       C  0.01042827  0.65568278  0.24564964     0.05890
C1712       C  0.48387589  0.63806203  0.23856698    -0.02660
Br1713     Br  0.47213007  0.62308331  0.20111024    -0.02350
H1714       H  0.44573690  0.61505026  0.25383321     0.09810
H1715       H  0.03771074  0.68135296  0.27874125     0.07820
Br1716     Br  0.01088462  0.67672391  0.33063878    -0.02780
C1717       C  0.36242718  0.97977662  0.47538966    -0.09420
C1718       C  0.35597861  0.49959642  0.47738925     0.06780
C1719       C  0.33598034  0.49711462  0.99500436    -0.03190
C1720       C  0.32410578  0.97603907  0.01122082    -0.07630
C1721       C  0.33141223  0.95682183  0.01028335     0.05890
C1722       C  0.35021484  0.95865689  0.99131347    -0.02660
Br1723     Br  0.36225362  0.93412223  0.98906802    -0.02350
H1724       H  0.37745639  0.98104326  0.46179518     0.09810
H1725       H  0.31074855  0.97594393  0.02655448     0.07820
Br1726     Br  0.32637433  0.52340731  0.00040712    -0.02780
C1727       C  0.32910117  0.98411928  0.25212383    -0.09420
C1728       C  0.34543876  0.99148889  0.22989523     0.06780
C1729       C  0.36525746  0.51738498  0.23025855    -0.03190
C1730       C  0.36982941  0.53498802  0.25356564    -0.07630
C1731       C  0.35475905  0.52724519  0.27688459     0.05890
C1732       C  0.33344413  0.50164489  0.27543510    -0.02660
Br1733     Br  0.30930758  0.48904171  0.30433457    -0.02350
H1734       H  0.31324950  0.96444455  0.25164624     0.09810
H1735       H  0.38611834  0.55441738  0.25396744     0.07820
Br1736     Br  0.38653081  0.52966016  0.19936298    -0.02780
C1737       C  0.03758028  0.55014801  0.38464474    -0.09420
C1738       C  0.05256545  0.55802355  0.40978667     0.06780
C1739       C  0.04080813  0.55943930  0.43479802    -0.03190
C1740       C  0.01617271  0.55743228  0.43354656    -0.07630
C1741       C  0.00313729  0.55367692  0.40776511     0.05890
C1742       C  0.01287339  0.54741459  0.38355917    -0.02660
Br1743     Br  0.99338474  0.53511262  0.34841675    -0.02350
H1744       H  0.04547339  0.54688075  0.36548604     0.09810
H1745       H  0.00809001  0.56059206  0.45257151     0.07820
Br1746     Br  0.05769998  0.56581389  0.47088304    -0.02780
C1747       C  0.28967531  0.60453445  0.35585734    -0.09420
C1748       C  0.26652465  0.58078799  0.35456928     0.06780
C1749       C  0.26751938  0.55771656  0.35154730    -0.03190
C1750       C  0.29150227  0.55862608  0.35181556    -0.07630
C1751       C  0.31465908  0.58232306  0.35517432     0.05890
C1752       C  0.31376440  0.60545878  0.35646848    -0.02660
Br1753     Br  0.34455314  0.63855492  0.36307340    -0.02350
H1754       H  0.28905465  0.62237645  0.35860503     0.09810
H1755       H  0.29208935  0.54075956  0.35079630     0.07820
Br1756     Br  0.23671772  0.52453411  0.34819210    -0.02780
C1757       C  0.46463583  0.81172935  0.00858044    -0.09420
C1758       C  0.47183681  0.81290140  0.48104026     0.06780
C1759       C  0.99852044  0.82138616  0.47641360    -0.03190
C1760       C  0.01774689  0.83423316  0.49823251    -0.07630
C1761       C  0.01072643  0.83690198  0.02543323     0.05890
C1762       C  0.48374346  0.82254513  0.03064903    -0.02660
Br1763     Br  0.47156452  0.81671814  0.06744517    -0.02350
H1764       H  0.44436158  0.80421169  0.01300046     0.09810
H1765       H  0.03808742  0.84344728  0.49355741     0.07820
Br1766     Br  0.00981328  0.81806790  0.43985171    -0.02780
C1767       C  0.49386422  0.84415450  0.26376585    -0.09420
C1768       C  0.48960378  0.86222627  0.28001405     0.06780
C1769       C  0.50430085  0.88850259  0.27525147    -0.03190
C1770       C  0.02173719  0.89584787  0.25415915    -0.07630
C1771       C  0.02512155  0.87775345  0.23680746     0.05890
C1772       C  0.01128685  0.85151801  0.24234938    -0.02660
Br1773     Br  0.01455096  0.82428124  0.22203445    -0.02350
H1774       H  0.48315209  0.82397448  0.26733512     0.09810
H1775       H  0.03228514  0.91612397  0.25100317     0.07820
Br1776     Br  0.50260899  0.91617590  0.29659500    -0.02780
C1777       C  0.40186868  0.93649040  0.37100214    -0.09420
C1778       C  0.42485853  0.93841836  0.38110909     0.06780
C1779       C  0.44185477  0.95911971  0.40031262    -0.03190
C1780       C  0.43655249  0.97897714  0.40730253    -0.07630
C1781       C  0.41340263  0.97700204  0.39702565     0.05890
C1782       C  0.39529957  0.95482075  0.38016320    -0.02660
Br1783     Br  0.36041374  0.94710257  0.37124275    -0.02350
H1784       H  0.38769240  0.91925545  0.35829418     0.09810
H1785       H  0.45050305  0.49591290  0.42048493     0.07820
Br1786     Br  0.47099184  0.95998349  0.41905194    -0.02780
C1787       C  0.41168553  0.69179912  0.40357599    -0.09420
C1788       C  0.41385693  0.68081645  0.37745738     0.06780
C1789       C  0.41380490  0.69244067  0.35344343    -0.03190
C1790       C  0.41220717  0.71495158  0.35607496    -0.07630
C1791       C  0.41116898  0.72656150  0.38235002     0.05890
C1792       C  0.41061604  0.71454489  0.40630835    -0.02660
Br1793     Br  0.41025166  0.72859573  0.44353555    -0.02350
H1794       H  0.41122557  0.68283894  0.42226578     0.09810
H1795       H  0.41245687  0.72379080  0.33735646     0.07820
Br1796     Br  0.41785791  0.67996101  0.31685808    -0.02780
C1797       C  0.04018651  0.93568943  0.38895587    -0.09420
C1798       C  0.01859504  0.93536187  0.37633714     0.06780
C1799       C  0.01948714  0.95870168  0.37180966    -0.03190
C1800       C  0.04103758  0.98181393  0.38235006    -0.07630
C1801       C  0.06180084  0.98174095  0.39627428     0.05890
C1802       C  0.06166600  0.95862781  0.39889615    -0.02660
Br1803     Br  0.09125684  0.95748675  0.41352422    -0.02350
H1804       H  0.04011647  0.91786684  0.39168170     0.09810
H1805       H  0.04235331  0.49992093  0.37821480     0.07820
Br1806     Br  0.49294677  0.96062947  0.35084333    -0.02780
C1807       C  0.29017694  0.68137245  0.38088300    -0.09420
C1808       C  0.26719193  0.68176484  0.37495397     0.06780
C1809       C  0.26780063  0.70535357  0.37360451    -0.03250
C1810       C  0.29142013  0.72826672  0.37777604    -0.07630
C1811       C  0.31456604  0.72808500  0.38390590     0.05890
C1812       C  0.31385612  0.70436783  0.38546223    -0.02660
Br1813     Br  0.34441746  0.70205371  0.39269829    -0.02350
H1814       H  0.28955741  0.66317505  0.38276576     0.09810
H1815       H  0.29172573  0.74637489  0.37628723     0.07820
Br1816     Br  0.23677193  0.70707030  0.36644073    -0.02780
C1817       C  0.34732170  0.81027089  0.00822987    -0.09420
C1818       C  0.34267492  0.81346112  0.48088425     0.06780
C1819       C  0.32470144  0.82226906  0.47632617    -0.03190
C1820       C  0.31702957  0.83335407  0.99858032    -0.07630
C1821       C  0.32529195  0.83404684  0.02597131     0.05890
C1822       C  0.33779746  0.81941042  0.03055609    -0.02660
Br1823     Br  0.34228187  0.81099675  0.06676766    -0.02350
H1824       H  0.35982122  0.80236166  0.01245817     0.09810
H1825       H  0.30610159  0.84290354  0.99421924     0.07820
Br1826     Br  0.31155585  0.82130003  0.43963690    -0.02780
C1827       C  0.34822455  0.85391970  0.23586835    -0.09420
C1828       C  0.35374401  0.87974605  0.23784233     0.06780
C1829       C  0.36799511  0.89630811  0.26177151    -0.03190
C1830       C  0.37725338  0.88719532  0.28223838    -0.07630
C1831       C  0.37230639  0.86161939  0.27978650     0.05890
C1832       C  0.35733063  0.84481065  0.25648005    -0.02660
Br1833     Br  0.35065927  0.80993626  0.25038072    -0.02350
H1834       H  0.33767772  0.84091484  0.21759134     0.09810
H1835       H  0.38825632  0.90016850  0.30037901     0.07820
Br1836     Br  0.37472765  0.93122283  0.26854667    -0.02780
O1837       O  0.36787018  0.83180872  0.81168389    -0.75550
O1838       O  0.40689078  0.86863195  0.81034883    -0.54460
C1839       C  0.38307187  0.85330630  0.80182905     0.78180
O1840       O  0.36903952  0.83681812  0.94729263    -0.60150
O1841       O  0.37051158  0.80027970  0.95388026    -0.53180
C1842       C  0.36178797  0.81636980  0.95928052     0.70190
O1843       O  0.41378397  0.90172114  0.90049578    -0.74710
O1844       O  0.43193488  0.90672569  0.85818017    -0.55280
C1845       C  0.42437109  0.91443157  0.87991174     0.76190
O1846       O  0.34099275  0.76638860  0.86518449    -0.59860
O1847       O  0.35616635  0.75900454  0.90510475    -0.52980
C1848       C  0.33901281  0.75268106  0.88500853     0.72780
Zr1849     Zr  0.37043278  0.80696630  0.84808154     2.54710
O1850       O  0.32776785  0.80369315  0.84957546    -0.80420
O1851       O  0.35735690  0.77517895  0.80764697    -0.93840
Zr1852     Zr  0.39786953  0.85914679  0.91282014     2.64680
O1853       O  0.36150636  0.86602776  0.90308456    -0.98790
O1854       O  0.41080155  0.88698895  0.95640550    -0.80860
O1855       O  0.39210216  0.85129506  0.86389490    -0.84210
O1856       O  0.37455560  0.81479693  0.89737520    -2.18920
O1857       O  0.42386533  0.76524933  0.86358518    -0.67600
O1858       O  0.40276910  0.75884146  0.90411616    -0.52170
C1859       C  0.41257344  0.75184313  0.88367607     0.71170
O1860       O  0.49252757  0.89682768  0.89361318    -0.60510
O1861       O  0.47701440  0.90536108  0.85519352    -0.52490
C1862       C  0.49451049  0.91090344  0.87432180     0.72970
O1863       O  0.46903443  0.83519149  0.94627578    -0.71910
O1864       O  0.43058112  0.79985700  0.95403764    -0.50580
C1865       C  0.45557609  0.81535548  0.95896435     0.74350
O1866       O  0.46523424  0.83260628  0.81265677    -0.67240
O1867       O  0.45962606  0.86715366  0.80859532    -0.54430
C1868       C  0.47021898  0.85339093  0.80175509     0.72730
Zr1869     Zr  0.43604064  0.80621781  0.84703204     2.77540
O1870       O  0.47458378  0.80135041  0.84679322    -0.97980
O1871       O  0.41674696  0.77671085  0.80498534    -0.78810
Zr1872     Zr  0.46300302  0.85769607  0.91182877     2.70070
O1873       O  0.50636107  0.86280306  0.90995650    -0.80050
O1874       O  0.47570916  0.88863074  0.95298915    -0.99140
Zr1875     Zr  0.43447669  0.86823890  0.84715042     2.21500
Zr1876     Zr  0.39885177  0.79686960  0.91647477     2.11130
O1877       O  0.44050707  0.81344034  0.89641336    -2.47820
O1878       O  0.45947841  0.85027838  0.86294725    -0.79850
O1879       O  0.39471598  0.78939291  0.86633612    -0.72040
O1880       O  0.43990162  0.87682852  0.89641161    -2.33000
O1881       O  0.41187005  0.82405402  0.82922651    -2.29210
O1882       O  0.42204712  0.84164870  0.93193680    -0.73800
H1883       H  0.35713447  0.80699140  0.90384670     0.78200
H1884       H  0.45006134  0.89496204  0.90267746     0.79280
H1885       H  0.44975802  0.80515086  0.90273460     0.81510
H1886       H  0.41069690  0.82208587  0.80913254     0.79120
H1887       H  0.43000811  0.89720366  0.95639708     0.42150
H1888       H  0.46534497  0.87841976  0.96791418     0.41120
H1889       H  0.00633599  0.85415479  0.89152676     0.40800
H1890       H  0.47716364  0.79834075  0.86608724     0.38730
H1891       H  0.40008009  0.76268017  0.81070219     0.41870
H1892       H  0.36901443  0.78443159  0.79299485     0.36650
H1893       H  0.33131488  0.82172241  0.85042997     0.42770
H1894       H  0.34699961  0.84871087  0.89643377     0.39180
H1895       H  0.46904145  0.78461560  0.83570196     0.44100
H1896       H  0.34007514  0.77226613  0.80137278     0.42820
H1897       H  0.35666766  0.87035805  0.92154237     0.42960
H1898       H  0.49377927  0.89300886  0.95798092     0.43320
O1899       O  0.42693286  0.65547601  0.89886104    -0.75550
O1900       O  0.40660058  0.64043072  0.85569512    -0.54460
C1901       C  0.41626688  0.65753659  0.87681228     0.78180
O1902       O  0.48285331  0.57211645  0.88411739    -0.60150
O1903       O  0.46635868  0.55566490  0.92483396    -0.53180
C1904       C  0.48252734  0.56057299  0.90548188     0.70190
O1905       O  0.46909172  0.61804859  0.82533963    -0.74710
O1906       O  0.43327775  0.62051839  0.81250416    -0.55280
C1907       C  0.45713908  0.62558420  0.80977551     0.76190
O1908       O  0.46046298  0.62895252  0.96021614    -0.59860
O1909       O  0.45652229  0.58975357  0.96633662    -0.52980
C1910       C  0.46634542  0.61436754  0.97269078     0.72780
Zr1911     Zr  0.43459378  0.62462097  0.91968066     2.54710
O1912       O  0.47509032  0.66555049  0.92204379    -0.80420
O1913       O  0.41661125  0.64014459  0.95690923    -0.93840
Zr1914     Zr  0.46110596  0.59265292  0.86371109     2.64680
O1915       O  0.50433175  0.62931627  0.87591103    -0.98790
O1916       O  0.47693711  0.57595848  0.82539237    -0.80860
O1917       O  0.44218653  0.61932318  0.87201492    -0.84210
O1918       O  0.45555568  0.59991296  0.91111167    -2.18920
O1919       O  0.35750950  0.53044452  0.94723593    -0.67600
O1920       O  0.39545514  0.53167345  0.95934941    -0.52170
C1921       C  0.37063573  0.52245804  0.96080814     0.71170
O1922       O  0.35928250  0.53284841  0.82585147    -0.60510
O1923       O  0.37976244  0.56856956  0.80446594    -0.52490
C1924       C  0.36452882  0.54401647  0.80367001     0.72970
O1925       O  0.40126109  0.50260357  0.87610865    -0.71910
O1926       O  0.42084250  0.51648250  0.91972351    -0.50580
C1927       C  0.41117623  0.49995765  0.89827417     0.74350
O1928       O  0.33853400  0.57112174  0.88370156    -0.67240
O1929       O  0.35792133  0.59298283  0.84615395    -0.54430
C1930       C  0.33871925  0.58220612  0.86192350     0.72730
Zr1931     Zr  0.36623281  0.56223296  0.91306778     2.77540
O1932       O  0.32011925  0.53024921  0.91132073    -0.97980
O1933       O  0.35898697  0.58741855  0.95066014    -0.78810
Zr1934     Zr  0.39167269  0.53165347  0.85486942     2.70070
O1935       O  0.35268451  0.98956544  0.84942965    -0.80050
O1936       O  0.40502922  0.51707499  0.81266158    -0.99140
Zr1937     Zr  0.40087649  0.59744898  0.84725293     2.21500
Zr1938     Zr  0.42734164  0.55927343  0.92751756     2.11130
O1939       O  0.38577041  0.53659811  0.90270218    -2.47820
O1940       O  0.37234480  0.55717230  0.86477173    -0.79850
O1941       O  0.40720837  0.58480978  0.93825359    -0.72040
O1942       O  0.42057596  0.57130021  0.83792091    -2.33000
O1943       O  0.39339642  0.60263330  0.89585079    -2.29210
O1944       O  0.43270159  0.55246525  0.87913210    -0.73800
H1945       H  0.47268712  0.60814805  0.92019115     0.78200
H1946       H  0.42292749  0.56902431  0.81831039     0.79280
H1947       H  0.37532504  0.51928096  0.90773646     0.81510
H1948       H  0.38478628  0.61272647  0.89864095     0.79120
H1949       H  0.46165965  0.55928469  0.81830892     0.42150
H1950       H  0.41659377  0.51087093  0.81936354     0.41120
H1951       H  0.34135117  0.49068329  0.86387428     0.40800
H1952       H  0.31940414  0.51337329  0.90766932     0.38730
H1953       H  0.36077025  0.58029726  0.96775740     0.41870
H1954       H  0.40121716  0.63964366  0.94807875     0.36650
H1955       H  0.48667684  0.66189951  0.91007738     0.42770
H1956       H  0.51131019  0.62433650  0.89143627     0.39180
H1957       H  0.31476829  0.53069179  0.93066063     0.44100
H1958       H  0.42939856  0.65875634  0.96068409     0.42820
H1959       H  0.01478610  0.62913173  0.86002911     0.42960
H1960       H  0.38912576  0.50121859  0.80497476     0.43320
O1961       O  0.00812009  0.91287100  0.63272940    -0.75550
O1962       O  0.02932536  0.93406813  0.67448833    -0.54460
C1963       C  0.01002194  0.92512963  0.65656189     0.78180
O1964       O  0.07068046  0.83860741  0.62487539    -0.60150
O1965       O  0.08834976  0.85154120  0.58315610    -0.53180
C1966       C  0.07923105  0.83498490  0.60151711     0.70190
O1967       O  0.04388494  0.87077036  0.69538146    -0.74710
O1968       O  0.05133806  0.91117166  0.70909505    -0.55280
C1969       C  0.04143508  0.88708223  0.71238266     0.76190
O1970       O  0.01981438  0.86676928  0.56430987    -0.59860
O1971       O  0.05487957  0.86493745  0.54730976    -0.52980
C1972       C  0.03001918  0.85732625  0.54698733     0.72780
Zr1973     Zr  0.03267670  0.89807364  0.60441598     2.54710
O1974       O  0.48933806  0.86363351  0.61230505    -0.80420
O1975       O  0.01739572  0.91524274  0.56949312    -0.93840
Zr1976     Zr  0.06572034  0.87139831  0.65250382     2.64680
O1977       O  0.02454978  0.83131546  0.65261164    -0.98790
O1978       O  0.08887114  0.85914080  0.68420976    -0.80860
O1979       O  0.04303171  0.89443306  0.65041558    -0.84210
O1980       O  0.05436348  0.87381916  0.60628689    -2.18920
O1981       O  0.11311716  0.96193079  0.55695975    -0.67600
O1982       O  0.10927217  0.92291697  0.54111874    -0.52170
C1983       C  0.11515465  0.94666364  0.53825200     0.71170
O1984       O  0.14244346  0.96262375  0.69281963    -0.60510
O1985       O  0.10625394  0.96441299  0.70612951    -0.52490
C1986       C  0.13050375  0.97108289  0.70900169     0.72970
O1987       O  0.15789518  0.92225238  0.61970417    -0.71910
O1988       O  0.13727127  0.90027430  0.57802861    -0.50580
C1989       C  0.15740381  0.91119303  0.59549515     0.74350
O1990       O  0.09476930  0.99514403  0.63380711    -0.67240
O1991       O  0.07640833  0.97958689  0.67428190    -0.54430
C1992       C  0.08584260  0.99733468  0.65770030     0.72730
Zr1993     Zr  0.09898866  0.96227571  0.60318651     2.77540
O1994       O  0.14161312  0.00083329  0.60432388    -0.97980
O1995       O  0.07778163  0.97910898  0.57493407    -0.78810
Zr1996     Zr  0.13216126  0.93491716  0.64926074     2.70070
O1997       O  0.17037907  0.97637558  0.64422150    -0.80050
O1998       O  0.15302531  0.91965736  0.68019227    -0.99140
Zr1999     Zr  0.07150835  0.93688669  0.67127998     2.21500
Zr2000     Zr  0.09289201  0.89496130  0.58072631     2.11130
O2001       O  0.12091321  0.93788759  0.60307823    -2.47820
O2002       O  0.11077926  0.95931183  0.64859509    -0.79850
O2003       O  0.07120792  0.91997896  0.58032283    -0.72040
O2004       O  0.09408474  0.91330596  0.67429576    -2.33000
O2005       O  0.05988454  0.94047627  0.62531479    -2.29210
O2006       O  0.10413224  0.89268612  0.62791055    -0.73800
H2007       H  0.04334437  0.85622772  0.59844521     0.78200
H2008       H  0.09842319  0.91271868  0.69341354     0.79280
H2009       H  0.13661364  0.94635919  0.59311949     0.81510
H2010       H  0.05117050  0.95050713  0.62516782     0.79120
H2011       H  0.08737433  0.86630718  0.70291909     0.42150
H2012       H  0.14759983  0.90185716  0.67213356     0.41120
H2013       H  0.16466135  0.98926742  0.64829399     0.40800
H2014       H  0.15293972  0.99501733  0.59494285     0.38730
H2015       H  0.06534813  0.96407106  0.56217132     0.41870
H2016       H  0.01861450  0.93111116  0.57913810     0.36650
H2017       H  0.49198301  0.85519566  0.62776600     0.42770
H2018       H  0.01731854  0.82705956  0.63316494     0.39180
H2019       H  0.13948506  0.51156437  0.59120364     0.44100
H2020       H  0.99848203  0.90297206  0.56691072     0.42820
H2021       H  0.02934221  0.81802194  0.65576443     0.42960
H2022       H  0.17177572  0.92968957  0.67677200     0.43320
O2023       O  0.14982602  0.61954161  0.82461117    -0.75550
O2024       O  0.18693866  0.61960220  0.81140793    -0.54460
C2025       C  0.16835047  0.62488264  0.80818018     0.78180
O2026       O  0.17213991  0.63095525  0.96133402    -0.60150
O2027       O  0.13592712  0.59247659  0.96713552    -0.53180
C2028       C  0.15154669  0.61684347  0.97374690     0.70190
O2029       O  0.23103116  0.65646459  0.89874768    -0.74710
O2030       O  0.23440095  0.64087802  0.85492973    -0.55280
C2031       C  0.24248607  0.65816517  0.87593097     0.76190
O2032       O  0.09150351  0.57746004  0.88668785    -0.59860
O2033       O  0.09149887  0.56039223  0.92705150    -0.52980
C2034       C  0.08037152  0.56593934  0.90812160     0.72780
Zr2035     Zr  0.13339871  0.59702665  0.86520220     2.54710
O2036       O  0.13136102  0.63613749  0.87848584    -0.80420
O2037       O  0.09751183  0.58170012  0.83055560    -0.93840
Zr2038     Zr  0.19276588  0.62603555  0.92028188     2.64680
O2039       O  0.19580218  0.66827187  0.92311962    -0.98790
O2040       O  0.22666857  0.63962631  0.95687499    -0.80860
O2041       O  0.17929496  0.62148776  0.87280995    -0.84210
O2042       O  0.14695617  0.60324536  0.91230947    -2.18920
O2043       O  0.09846207  0.50680324  0.87517342    -0.67600
O2044       O  0.09440525  0.52055735  0.91951040    -0.52170
C2045       C  0.08643270  0.50470806  0.89745923     0.71170
O2046       O  0.23112243  0.56908737  0.88267960    -0.60510
O2047       O  0.23451569  0.59238667  0.84610375    -0.52490
C2048       C  0.24228563  0.58054929  0.86122628     0.72970
O2049       O  0.17206021  0.53045929  0.94676584    -0.71910
O2050       O  0.13681601  0.53394300  0.95970901    -0.50580
C2051       C  0.15161232  0.52376005  0.96102781     0.74350
O2052       O  0.17187768  0.53299671  0.82798044    -0.67240
O2053       O  0.18868712  0.56814076  0.80547453    -0.54430
C2054       C  0.17873203  0.54355827  0.80548385     0.72730
Zr2055     Zr  0.13787002  0.53379485  0.85434097     2.77540
O2056       O  0.12661874  0.98879519  0.84438500    -0.97980
O2057       O  0.11182785  0.52425631  0.81127691    -0.78810
Zr2058     Zr  0.19485015  0.56125600  0.91193812     2.70070
O2059       O  0.20370190  0.52553265  0.90896034    -0.80050
O2060       O  0.22872199  0.58415748  0.94887311    -0.99140
Zr2061     Zr  0.19671188  0.59796884  0.84741777     2.21500
Zr2062     Zr  0.13296503  0.56190127  0.92791761     2.11130
O2063       O  0.14936160  0.53746314  0.90209636    -2.47820
O2064       O  0.18296963  0.55689861  0.86398399    -0.79850
O2065       O  0.12014519  0.55627417  0.87985818    -0.72040
O2066       O  0.20992988  0.60245290  0.89570313    -2.33000
O2067       O  0.15063479  0.57426294  0.83840208    -2.29210
O2068       O  0.17876127  0.58548390  0.93802210    -0.73800
H2069       H  0.13882687  0.61210619  0.92167174     0.78200
H2070       H  0.22866602  0.61190972  0.89822005     0.79280
H2071       H  0.14183453  0.52008295  0.90720390     0.81510
H2072       H  0.14600304  0.57243184  0.81883126     0.79120
H2073       H  0.24098838  0.63847457  0.94754981     0.42150
H2074       H  0.21936832  0.57994269  0.96628350     0.41120
H2075       H  0.19046130  0.51251374  0.89498093     0.40800
H2076       H  0.12611889  0.98256201  0.86281018     0.38730
H2077       H  0.09644170  0.52554949  0.81707980     0.41870
H2078       H  0.10325143  0.57570311  0.81368115     0.36650
H2079       H  0.14914187  0.65035534  0.87608545     0.42770
H2080       H  0.17769650  0.66477399  0.92484011     0.39180
H2081       H  0.10830306  0.97958035  0.83697752     0.44100
H2082       H  0.09746161  0.59743420  0.82580082     0.42820
H2083       H  0.20460549  0.67689260  0.94152026     0.42960
H2084       H  0.23860103  0.57475768  0.94833105     0.43320
O2085       O  0.03484121  0.67820810  0.70832397    -0.75550
O2086       O  0.04283834  0.64797481  0.72508869    -0.54460
C2087       C  0.03083600  0.66112652  0.72515593     0.78180
O2088       O  0.03061033  0.64659707  0.57668696    -0.60150
O2089       O  0.06714713  0.68173975  0.56426860    -0.53180
C2090       C  0.04343412  0.66323339  0.55989546     0.70190
O2091       O  0.00830942  0.60143026  0.64763903    -0.74710
O2092       O  0.02560854  0.60125444  0.68959536    -0.55280
C2093       C  0.00690997  0.59191607  0.67067372     0.76190
O2094       O  0.07117685  0.73355638  0.64164970    -0.59860
O2095       O  0.09214599  0.73202613  0.60245350    -0.52980
C2096       C  0.08150383  0.74210993  0.61849679     0.72780
Zr2097     Zr  0.06510774  0.69967624  0.67196202     2.54710
O2098       O  0.02865228  0.70782064  0.67232476    -0.80420
O2099       O  0.08799898  0.73556351  0.70783266    -0.93840
Zr2100     Zr  0.03624390  0.63567977  0.62134320     2.64680
O2101       O  0.49481911  0.63512912  0.62284149    -0.98790
O2102       O  0.01819877  0.59654812  0.58925477    -0.80860
O2103       O  0.04321483  0.65391434  0.66766002    -0.84210
O2104       O  0.05703710  0.68118233  0.62496037    -2.18920
O2105       O  0.15969584  0.73654825  0.64671366    -0.67600
O2106       O  0.14119688  0.73121118  0.60326040    -0.52170
C2107       C  0.15990081  0.74325615  0.62190184     0.71170
O2108       O  0.09927351  0.60469856  0.65247157    -0.60510
O2109       O  0.07568651  0.60207808  0.69044749    -0.52490
C2110       C  0.08840691  0.59431127  0.67427768     0.72970
O2111       O  0.12124011  0.64872748  0.58103165    -0.71910
O2112       O  0.11775382  0.68205679  0.56611050    -0.50580
C2113       C  0.12452526  0.66454779  0.56332979     0.74350
O2114       O  0.14051870  0.67969108  0.71201908    -0.67240
O2115       O  0.10227264  0.64738239  0.72598761    -0.54430
C2116       C  0.12733230  0.66123681  0.72729613     0.72730
Zr2117     Zr  0.13213184  0.70168968  0.67575951     2.77540
O2118       O  0.17750250  0.71268598  0.68167258    -0.97980
O2119       O  0.14092044  0.73621073  0.71206428    -0.78810
Zr2120     Zr  0.10327452  0.63773787  0.62501823     2.70070
O2121       O  0.14638435  0.64228595  0.62873411    -0.80050
O2122       O  0.08452149  0.59738241  0.59483751    -0.99140
Zr2123     Zr  0.06900206  0.63980691  0.69067468     2.21500
Zr2124     Zr  0.09799052  0.69473176  0.60455536     2.11130
O2125       O  0.12559619  0.68329406  0.62877294    -2.47820
O2126       O  0.11044939  0.65603054  0.67125236    -0.79850
O2127       O  0.10585258  0.71426866  0.65170010    -0.72040
O2128       O  0.06192131  0.62171129  0.64352330    -2.33000
O2129       O  0.09113178  0.68652883  0.69652716    -2.29210
O2130       O  0.07631880  0.64893714  0.60047032    -0.73800
H2131       H  0.04664620  0.68659814  0.61506134     0.78200
H2132       H  0.05314855  0.60309353  0.64206643     0.79280
H2133       H  0.14212611  0.68942543  0.62031696     0.81510
H2134       H  0.09347908  0.69273290  0.71603612     0.79120
H2135       H  0.02853668  0.58825400  0.59356286     0.42150
H2136       H  0.07710508  0.60064855  0.57827308     0.41120
H2137       H  0.15566832  0.65617873  0.64403421     0.40800
H2138       H  0.18281125  0.71051483  0.66266745     0.38730
H2139       H  0.14524299  0.75135954  0.70187406     0.41870
H2140       H  0.07813159  0.72954126  0.72467645     0.36650
H2141       H  0.01635046  0.69535693  0.65730550     0.42770
H2142       H  0.49923788  0.65320368  0.62136481     0.39180
H2143       H  0.18719234  0.73152191  0.68713906     0.44100
H2144       H  0.08421146  0.74900713  0.70241576     0.42820
H2145       H  0.48541317  0.62566640  0.60493343     0.42960
H2146       H  0.09969008  0.59613159  0.58810747     0.43320
O2147       O  0.32162286  0.96405968  0.68976625    -0.75550
O2148       O  0.35877563  0.96476332  0.70442803    -0.54460
C2149       C  0.34162346  0.97206568  0.70662064     0.78180
O2150       O  0.26627882  0.84031701  0.62769013    -0.60150
O2151       O  0.26208947  0.85087535  0.58421372    -0.53180
C2152       C  0.25363984  0.83635969  0.60447319     0.70190
O2153       O  0.32734910  0.87250506  0.69714362    -0.74710
O2154       O  0.36160708  0.91278037  0.70899731    -0.55280
C2155       C  0.34677349  0.88912562  0.71348641     0.76190
O2156       O  0.26606817  0.92229735  0.61553442    -0.59860
O2157       O  0.26291341  0.89773975  0.57532063    -0.52980
C2158       C  0.25446484  0.90974794  0.59207631     0.72780
Zr2159     Zr  0.30380843  0.93538454  0.64652958     2.54710
O2160       O  0.26747279  0.91889246  0.67685755    -0.80420
O2161       O  0.30115388  0.97385671  0.63962879    -0.93840
Zr2162     Zr  0.30635515  0.87154559  0.65289894     2.64680
O2163       O  0.27431968  0.86023883  0.68823212    -0.98790
O2164       O  0.30524526  0.83021404  0.65024146    -0.80860
O2165       O  0.31980783  0.91403122  0.67309562    -0.84210
O2166       O  0.28938323  0.89268414  0.62726165    -2.18920
O2167       O  0.34769388  0.95942645  0.55415732    -0.67600
O2168       O  0.31206899  0.92041378  0.53960611    -0.52170
C2169       C  0.32964665  0.94412497  0.53614780     0.71170
O2170       O  0.40610561  0.91478507  0.63139372    -0.60510
O2171       O  0.40576380  0.93556858  0.67322927    -0.52490
C2172       C  0.41654320  0.92743925  0.65511235     0.72970
O2173       O  0.34485197  0.86212462  0.56647998    -0.71910
O2174       O  0.30953153  0.86224292  0.54750562    -0.50580
C2175       C  0.32593857  0.85364582  0.54823198     0.74350
O2176       O  0.40112582  0.99224404  0.62892039    -0.67240
O2177       O  0.40281113  0.97966310  0.67169584    -0.54430
C2178       C  0.41139731  0.99612260  0.65369063     0.72730
Zr2179     Zr  0.36371257  0.95944389  0.59945851     2.77540
O2180       O  0.40112213  0.97326747  0.57068316    -0.97980
O2181       O  0.36049116  0.99821890  0.59720705    -0.78810
Zr2182     Zr  0.36511989  0.89556123  0.60452257     2.70070
O2183       O  0.39620797  0.90774897  0.56816576    -0.80050
O2184       O  0.37406207  0.86217678  0.61738261    -0.99140
Zr2185     Zr  0.36575383  0.93693665  0.66980754     2.21500
Zr2186     Zr  0.30195330  0.89289142  0.57973970     2.11130
O2187       O  0.34856808  0.91660336  0.57847537    -2.47820
O2188       O  0.38064569  0.93839821  0.62393527    -0.79850
O2189       O  0.31764200  0.93629296  0.60036991    -0.72040
O2190       O  0.35192411  0.89388688  0.65053833    -2.33000
O2191       O  0.34947782  0.95904993  0.64484999    -2.29210
O2192       O  0.31928368  0.87208018  0.60630627    -0.73800
H2193       H  0.27070296  0.88381719  0.62797072     0.78200
H2194       H  0.35996002  0.88611870  0.66056153     0.79280
H2195       H  0.35379919  0.91674753  0.55954625     0.81510
H2196       H  0.35610365  0.97663148  0.65282020     0.79120
H2197       H  0.32316636  0.83456191  0.65590840     0.42150
H2198       H  0.35672575  0.84671242  0.61792293     0.41120
H2199       H  0.40585146  0.92683973  0.57062484     0.40800
H2200       H  0.39467886  0.96104646  0.55360161     0.38730
H2201       H  0.34159935  0.99214064  0.59705290     0.41870
H2202       H  0.31867567  0.98847549  0.64542315     0.36650
H2203       H  0.27497018  0.91791260  0.69476125     0.42770
H2204       H  0.26546811  0.87021605  0.68501782     0.39180
H2205       H  0.40403483  0.98980792  0.56457619     0.44100
H2206       H  0.28980043  0.97467981  0.65421553     0.42820
H2207       H  0.26108977  0.84203039  0.68268972     0.42960
H2208       H  0.38204228  0.85834634  0.60100743     0.43320
C2209       C  0.46012221  0.56720599  0.65847719    -0.09420
C2210       C  0.48131141  0.56876012  0.67360825     0.06780
C2211       C  0.47778304  0.54679791  0.68580665    -0.03190
C2212       C  0.45444382  0.52330786  0.67994198    -0.07630
C2213       C  0.43457606  0.52143797  0.66201755     0.05890
C2214       C  0.43729850  0.54405769  0.65222693    -0.02660
Br2215     Br  0.41101699  0.54537481  0.63003024    -0.02350
H2216       H  0.46184258  0.58404398  0.64980338     0.09810
H2217       H  0.45230977  0.00624010  0.68841655     0.07820
Br2218     Br  0.00415030  0.54727282  0.70928169    -0.02780
C2219       C  0.18962727  0.79023815  0.63120465    -0.09420
C2220       C  0.18288822  0.76724492  0.61473138     0.06780
C2221       C  0.19753400  0.76803556  0.59138532    -0.03190
C2222       C  0.21974640  0.79132763  0.58626655    -0.07630
C2223       C  0.22685237  0.81417508  0.60345265     0.05890
C2224       C  0.21068773  0.81356986  0.62515381    -0.02660
Br2225     Br  0.21676936  0.84435192  0.64743528    -0.02350
H2226       H  0.17805274  0.79014723  0.64857531     0.09810
H2227       H  0.23212265  0.79129289  0.56982040     0.07820
Br2228     Br  0.18919364  0.73747126  0.56739469    -0.02780
C2229       C  0.13754563  0.62847152  0.74243871    -0.09420
C2230       C  0.14194934  0.65385996  0.74611842     0.06780
C2231       C  0.15977346  0.67107234  0.76760331    -0.03190
C2232       C  0.17120678  0.66215478  0.78620350    -0.07630
C2233       C  0.16574991  0.63634339  0.78328951     0.05890
C2234       C  0.14934989  0.61974634  0.76058080    -0.02660
Br2235     Br  0.14008827  0.58404201  0.75541382    -0.02350
H2236       H  0.12422247  0.61508124  0.72578140     0.09810
H2237       H  0.18290706  0.67491595  0.80414145     0.07820
Br2238     Br  0.16673772  0.70598072  0.77420139    -0.02780
C2239       C  0.12090244  0.65168265  0.51297466    -0.09420
C2240       C  0.13599122  0.66026725  0.53803893     0.06780
C2241       C  0.15748320  0.65626743  0.54074183    -0.03190
C2242       C  0.16179380  0.64140254  0.51989903    -0.07630
C2243       C  0.14521439  0.63072931  0.99598706     0.05890
C2244       C  0.12576956  0.63741682  0.99170661    -0.02660
Br2245     Br  0.10630642  0.62864002  0.95684922    -0.02350
H2246       H  0.10442218  0.65471937  0.51055466     0.09810
H2247       H  0.17798120  0.63793738  0.52247888     0.07820
Br2248     Br  0.18057383  0.66948527  0.57342420    -0.02780
C2249       C  0.11636155  0.98448969  0.98026683    -0.09420
C2250       C  0.14317026  0.50152098  0.97853891     0.06780
C2251       C  0.16065759  0.49622667  0.49294584    -0.03190
C2252       C  0.15116601  0.97545509  0.50967075    -0.07630
C2253       C  0.12429330  0.95897970  0.51196375     0.05890
C2254       C  0.10701569  0.96338802  0.49619066    -0.02660
Br2255     Br  0.07005906  0.94236798  0.49816633    -0.02350
H2256       H  0.10238278  0.98778177  0.96941744     0.09810
H2257       H  0.16487798  0.97343100  0.52267533     0.07820
Br2258     Br  0.19762282  0.51849246  0.49350066    -0.02780
C2259       C  0.15250720  0.98235507  0.75588373    -0.09420
C2260       C  0.14601026  0.99033613  0.73231125     0.06780
C2261       C  0.15460033  0.51670877  0.73123630    -0.03190
C2262       C  0.16738152  0.53439216  0.75455566    -0.07630
C2263       C  0.17206551  0.52619190  0.77921316     0.05890
C2264       C  0.16558649  0.99993722  0.77914880    -0.02660
Br2265     Br  0.17375647  0.98629339  0.80979942    -0.02350
H2266       H  0.14687895  0.96222200  0.75641961     0.09810
H2267       H  0.17248945  0.55434786  0.75376750     0.07820
Br2268     Br  0.14944093  0.52938146  0.69824976    -0.02780
C2269       C  0.06747969  0.54816834  0.68380977    -0.09420
C2270       C  0.08999091  0.57088681  0.67868725     0.06780
C2271       C  0.11204290  0.56920601  0.67036164    -0.03190
C2272       C  0.11006099  0.54517881  0.66329610    -0.07630
C2273       C  0.08709032  0.52229808  0.66678110     0.05890
C2274       C  0.06603732  0.52403007  0.67850694    -0.02660
Br2275     Br  0.03385501  0.99425176  0.68497447    -0.02350
H2276       H  0.05038313  0.54898543  0.69002983     0.09810
H2277       H  0.12666317  0.54441725  0.65496553     0.07820
Br2278     Br  0.14544038  0.59922126  0.66789792    -0.02780
C2279       C  0.10246665  0.80963259  0.59723880    -0.09420
C2280       C  0.07887073  0.80986827  0.59734319     0.06780
C2281       C  0.05590173  0.78674659  0.60150595    -0.03190
C2282       C  0.05705884  0.76488418  0.60796085    -0.07630
C2283       C  0.08085493  0.76510618  0.60959018     0.05890
C2284       C  0.10354591  0.78749285  0.60298362    -0.02660
Br2285     Br  0.13698297  0.78993983  0.60428072    -0.02350
H2286       H  0.12039103  0.82724525  0.59464487     0.09810
H2287       H  0.03927594  0.74768768  0.61199725     0.07820
Br2288     Br  0.02238708  0.78432490  0.59898943    -0.02780
C2289       C  0.18312893  0.89064110  0.57420350    -0.09420
C2290       C  0.18248638  0.91198070  0.58835883     0.06780
C2291       C  0.20653376  0.93349315  0.59866279    -0.03190
C2292       C  0.22955426  0.93268553  0.59667145    -0.07630
C2293       C  0.23009120  0.91058329  0.58541509     0.05890
C2294       C  0.20669378  0.88979364  0.57268207    -0.02660
Br2295     Br  0.20548804  0.85942656  0.55462497    -0.02350
H2296       H  0.16513850  0.87400704  0.56576882     0.09810
H2297       H  0.24731181  0.94937348  0.60559705     0.07820
Br2298     Br  0.21031228  0.96493636  0.61713935    -0.02780
C2299       C  0.44857645  0.92182725  0.68231366    -0.09420
C2300       C  0.44311342  0.93313739  0.66090068     0.06780
C2301       C  0.46181667  0.94551473  0.64150697    -0.03190
C2302       C  0.48454198  0.94417924  0.64196212    -0.07630
C2303       C  0.48909981  0.93089979  0.66174417     0.05890
C2304       C  0.47162953  0.92063704  0.68283893    -0.02660
Br2305     Br  0.47684723  0.90214811  0.71027753    -0.02350
H2306       H  0.43407495  0.91213271  0.69716447     0.09810
H2307       H  0.49818782  0.95244668  0.62590825     0.07820
Br2308     Br  0.45629049  0.96280071  0.61269859    -0.02780
C2309       C  0.03229240  0.64552360  0.51110224    -0.09420
C2310       C  0.02849084  0.65905970  0.53401221     0.06780
C2311       C  0.50465033  0.65892174  0.53570436    -0.03190
C2312       C  0.48425708  0.64346965  0.51610771    -0.07630
C2313       C  0.48728942  0.62812939  0.99448473     0.05890
C2314       C  0.01202571  0.63049044  0.99111360    -0.02660
Br2315     Br  0.01956283  0.61485614  0.95893588    -0.02350
H2316       H  0.05047835  0.64532726  0.50966862     0.09810
H2317       H  0.46587233  0.64320684  0.51790984     0.07820
Br2318     Br  0.49864632  0.67809158  0.56590216    -0.02780
C2319       C  0.46550963  0.63029756  0.75925258    -0.09420
C2320       C  0.47309304  0.64036484  0.78716080     0.06780
C2321       C  0.49918631  0.66002938  0.79355798    -0.03190
C2322       C  0.01758914  0.66723236  0.77305044    -0.07630
C2323       C  0.01043385  0.65568775  0.74564267     0.05890
C2324       C  0.48388167  0.63806975  0.73855752    -0.02660
Br2325     Br  0.47213585  0.62308593  0.70110243    -0.02350
H2326       H  0.44574161  0.61506406  0.75382152     0.09810
H2327       H  0.03771806  0.68135769  0.77873357     0.07820
Br2328     Br  0.01089003  0.67673063  0.83063073    -0.02780
C2329       C  0.36228257  0.97977887  0.97532773    -0.09420
C2330       C  0.35607062  0.49976017  0.97746268     0.06780
C2331       C  0.33564501  0.49668692  0.49469672    -0.03190
C2332       C  0.32385299  0.97559942  0.51090854    -0.07630
C2333       C  0.33142430  0.95658754  0.51013871     0.05890
C2334       C  0.35038617  0.95860417  0.49130893    -0.02660
Br2335     Br  0.36257383  0.93418556  0.48908910    -0.02350
H2336       H  0.37717397  0.98089700  0.96160260     0.09810
H2337       H  0.31031155  0.97532981  0.52609349     0.07820
Br2338     Br  0.32546260  0.52257123  0.49975622    -0.02780
C2339       C  0.32910253  0.98411983  0.75212246    -0.09420
C2340       C  0.34543860  0.99148769  0.72989206     0.06780
C2341       C  0.36525629  0.51738386  0.73025261    -0.03190
C2342       C  0.36982804  0.53498915  0.75355695    -0.07630
C2343       C  0.35475962  0.52724885  0.77687719     0.05890
C2344       C  0.33344621  0.50164782  0.77543212    -0.02660
Br2345     Br  0.30931325  0.48904715  0.80433546    -0.02350
H2346       H  0.31325191  0.96444488  0.75164767     0.09810
H2347       H  0.38611619  0.55441867  0.75395587     0.07820
Br2348     Br  0.38653027  0.52965691  0.69935754    -0.02780
C2349       C  0.03758769  0.55014217  0.88463855    -0.09420
C2350       C  0.05257036  0.55801943  0.90978247     0.06780
C2351       C  0.04081265  0.55943893  0.93479177    -0.03190
C2352       C  0.01618080  0.55743802  0.93353507    -0.07630
C2353       C  0.00315174  0.55368666  0.90775048     0.05890
C2354       C  0.01288420  0.54741548  0.88354828    -0.02660
Br2355     Br  0.99339406  0.53511103  0.84840686    -0.02350
H2356       H  0.04548115  0.54687075  0.86548209     0.09810
H2357       H  0.00809708  0.56060061  0.95255788     0.07820
Br2358     Br  0.05770013  0.56581281  0.97087954    -0.02780
C2359       C  0.28967705  0.60453710  0.85585523    -0.09420
C2360       C  0.26652727  0.58079004  0.85456818     0.06780
C2361       C  0.26752362  0.55771950  0.85154151    -0.03190
C2362       C  0.29150787  0.55863069  0.85180037    -0.07630
C2363       C  0.31466483  0.58232853  0.85515582     0.05890
C2364       C  0.31376716  0.60546312  0.85645900    -0.02660
Br2365     Br  0.34455381  0.63855992  0.86306974    -0.02350
H2366       H  0.28905530  0.62237839  0.85860780     0.09810
H2367       H  0.29209622  0.54076472  0.85077708     0.07820
Br2368     Br  0.23672218  0.52453644  0.84819194    -0.02780
C2369       C  0.46463611  0.81172965  0.50858046    -0.09420
C2370       C  0.47183666  0.81290124  0.98104030     0.06780
C2371       C  0.99852029  0.82138603  0.97641368    -0.03190
C2372       C  0.01774664  0.83423311  0.99823264    -0.07630
C2373       C  0.01072687  0.83690205  0.52543318     0.05890
C2374       C  0.48374383  0.82254535  0.53064902    -0.02660
Br2375     Br  0.47156484  0.81671834  0.56744515    -0.02350
H2376       H  0.44436188  0.80421206  0.51300054     0.09810
H2377       H  0.03808720  0.84344734  0.99355763     0.07820
Br2378     Br  0.00981326  0.81806788  0.93985181    -0.02780
C2379       C  0.49386402  0.84415483  0.76376572    -0.09420
C2380       C  0.48960371  0.86222674  0.78001392     0.06780
C2381       C  0.50430103  0.88850300  0.77525127    -0.03190
C2382       C  0.02173748  0.89584813  0.75415897    -0.07630
C2383       C  0.02512169  0.87775360  0.73680725     0.05890
C2384       C  0.01128674  0.85151818  0.74234924    -0.02660
Br2385     Br  0.01455083  0.82428132  0.72203448    -0.02350
H2386       H  0.48315182  0.82397483  0.76733507     0.09810
H2387       H  0.03228564  0.91612423  0.75100301     0.07820
Br2388     Br  0.50260936  0.91617638  0.79659486    -0.02780
C2389       C  0.40186497  0.93649156  0.87100633    -0.09420
C2390       C  0.42485528  0.93841960  0.88111211     0.06780
C2391       C  0.44185249  0.95912234  0.90031375    -0.03190
C2392       C  0.43655247  0.97898218  0.90729971    -0.07630
C2393       C  0.41340424  0.97700929  0.89702003     0.05890
C2394       C  0.39529849  0.95482512  0.88016302    -0.02660
Br2395     Br  0.36041291  0.94710789  0.87124350    -0.02350
H2396       H  0.38768723  0.91925537  0.85830122     0.09810
H2397       H  0.45050494  0.49591923  0.92047903     0.07820
Br2398     Br  0.47099022  0.95998682  0.91905258    -0.02780
C2399       C  0.41168507  0.69180177  0.90356977    -0.09420
C2400       C  0.41385856  0.68082328  0.87744948     0.06780
C2401       C  0.41380413  0.69244750  0.85343723    -0.03190
C2402       C  0.41220395  0.71495653  0.85607155    -0.07630
C2403       C  0.41116658  0.72656434  0.88234826     0.05890
C2404       C  0.41061430  0.71454656  0.90630528    -0.02660
Br2405     Br  0.41025116  0.72859556  0.94353403    -0.02350
H2406       H  0.41122651  0.68284014  0.92225803     0.09810
H2407       H  0.41245241  0.72379663  0.83735413     0.07820
Br2408     Br  0.41785898  0.67997047  0.81685135    -0.02780
C2409       C  0.04018708  0.93569002  0.88895622    -0.09420
C2410       C  0.01859566  0.93536251  0.87633757     0.06780
C2411       C  0.01948768  0.95870228  0.87181011    -0.03190
C2412       C  0.04103816  0.98181452  0.88235041    -0.07630
C2413       C  0.06180146  0.98174158  0.89627463     0.05890
C2414       C  0.06166654  0.95862838  0.89889650    -0.02660
Br2415     Br  0.09125727  0.95748707  0.91352437    -0.02350
H2416       H  0.04011700  0.91786740  0.89168200     0.09810
H2417       H  0.04235391  0.49992147  0.87821501     0.07820
Br2418     Br  0.49294703  0.96062988  0.85084398    -0.02780
C2419       C  0.29017714  0.68137262  0.88088300    -0.09420
C2420       C  0.26719218  0.68176502  0.87495381     0.06780
C2421       C  0.26780082  0.70535373  0.87360450    -0.03250
C2422       C  0.29142029  0.72826689  0.87777631    -0.07630
C2423       C  0.31456620  0.72808518  0.88390634     0.05890
C2424       C  0.31385627  0.70436799  0.88546246    -0.02660
Br2425     Br  0.34441747  0.70205381  0.89269858    -0.02350
H2426       H  0.28955761  0.66317523  0.88276573     0.09810
H2427       H  0.29172588  0.74637507  0.87628760     0.07820
Br2428     Br  0.23677205  0.70707037  0.86644072    -0.02780
C2429       C  0.34732528  0.81026375  0.50822923    -0.09420
C2430       C  0.34267201  0.81346320  0.98088282     0.06780
C2431       C  0.32469844  0.82227004  0.97631991    -0.03190
C2432       C  0.31703215  0.83334802  0.49859081    -0.07630
C2433       C  0.32529421  0.83403400  0.52598003     0.05890
C2434       C  0.33780128  0.81939913  0.53055892    -0.02660
Br2435     Br  0.34228839  0.81098602  0.56676946    -0.02350
H2436       H  0.35982544  0.80235433  0.51245345     0.09810
H2437       H  0.30610382  0.84289837  0.49423500     0.07820
Br2438     Br  0.31155440  0.82129551  0.93962842    -0.02780
C2439       C  0.34822760  0.85392199  0.73587598    -0.09420
C2440       C  0.35374733  0.87974849  0.73785228     0.06780
C2441       C  0.36799885  0.89631021  0.76178045    -0.03190
C2442       C  0.37725687  0.88719654  0.78224596    -0.07630
C2443       C  0.37230914  0.86162031  0.77979202     0.05890
C2444       C  0.35733351  0.84481198  0.75648574    -0.02660
Br2445     Br  0.35066150  0.80993728  0.75038403    -0.02350
H2446       H  0.33768043  0.84091766  0.71759872     0.09810
H2447       H  0.38826009  0.90016902  0.80038688     0.07820
Br2448     Br  0.37473108  0.93122467  0.76855476    -0.02780
O2449       O  0.86786849  0.33180822  0.31168089    -0.75550
O2450       O  0.90688869  0.36863177  0.31034634    -0.54460
C2451       C  0.88306971  0.35330599  0.30182565     0.78180
O2452       O  0.86903915  0.33681669  0.44729188    -0.60150
O2453       O  0.87051314  0.30027910  0.45387911    -0.53180
C2454       C  0.86178898  0.31636857  0.45927989     0.70190
O2455       O  0.91378515  0.40172003  0.40049333    -0.74710
O2456       O  0.93193587  0.40672413  0.35817754    -0.55280
C2457       C  0.92437290  0.41443026  0.37990924     0.76190
O2458       O  0.84099254  0.26638852  0.36518399    -0.59860
O2459       O  0.85616629  0.25900399  0.40510392    -0.52980
C2460       C  0.83901265  0.25268083  0.38500793     0.72780
Zr2461     Zr  0.87043217  0.30696606  0.34807995     2.54710
O2462       O  0.82776743  0.30369322  0.34957514    -0.80420
O2463       O  0.85735619  0.27517851  0.30764569    -0.93840
Zr2464     Zr  0.89786916  0.35914582  0.41281919     2.64680
O2465       O  0.86150605  0.36602720  0.40308483    -0.98790
O2466       O  0.91080110  0.38698844  0.45640437    -0.80860
O2467       O  0.89210149  0.35129458  0.36389373    -0.84210
O2468       O  0.87455577  0.31479604  0.39737390    -2.18920
O2469       O  0.92386553  0.26524607  0.36358341    -0.67600
O2470       O  0.90277038  0.25883986  0.40411504    -0.52170
C2471       C  0.91257459  0.25184053  0.38367531     0.71170
O2472       O  0.99252710  0.39682694  0.39361263    -0.60510
O2473       O  0.97701360  0.40536000  0.35519291    -0.52490
C2474       C  0.99450982  0.41090263  0.37432127     0.72970
O2475       O  0.96903428  0.33519129  0.44627545    -0.71910
O2476       O  0.93058120  0.29985643  0.45403700    -0.50580
C2477       C  0.95557609  0.31535528  0.45896407     0.74350
O2478       O  0.96523408  0.33260562  0.31265672    -0.67240
O2479       O  0.95962533  0.36715254  0.30859404    -0.54430
C2480       C  0.97021874  0.35339017  0.30175472     0.72730
Zr2481     Zr  0.93603997  0.30621593  0.34703129     2.77540
O2482       O  0.97458394  0.30134999  0.34679314    -0.97980
O2483       O  0.91674649  0.27670958  0.30498430    -0.78810
Zr2484     Zr  0.96300259  0.35769514  0.41182775     2.70070
O2485       O  0.00636093  0.36280282  0.40995604    -0.80050
O2486       O  0.97570837  0.38863002  0.45298806    -0.99140
Zr2487     Zr  0.93447560  0.36823731  0.34714834     2.21500
Zr2488     Zr  0.89885202  0.29686834  0.41647328     2.11130
O2489       O  0.94050724  0.31343925  0.39641249    -2.47820
O2490       O  0.95947729  0.35027684  0.36294609    -0.79850
O2491       O  0.89471523  0.28939207  0.36633477    -0.72040
O2492       O  0.93990098  0.37682706  0.39640991    -2.33000
O2493       O  0.91186943  0.32405242  0.32922513    -2.29210
O2494       O  0.92204673  0.34164752  0.43193574    -0.73800
H2495       H  0.85713472  0.30699051  0.40384565     0.78200
H2496       H  0.95006102  0.39496051  0.40267592     0.79280
H2497       H  0.94975826  0.30514991  0.40273392     0.81510
H2498       H  0.91069628  0.32208420  0.30913117     0.79120
H2499       H  0.93000759  0.39720385  0.45639557     0.42150
H2500       H  0.96534424  0.37841909  0.46791315     0.41120
H2501       H  0.50633616  0.35415471  0.39152636     0.40800
H2502       H  0.97716367  0.29834022  0.36608715     0.38730
H2503       H  0.90007928  0.26267918  0.31070083     0.41870
H2504       H  0.86901329  0.28443122  0.29299330     0.36650
H2505       H  0.83131467  0.32172259  0.35043046     0.42770
H2506       H  0.84699850  0.34871001  0.39643643     0.39180
H2507       H  0.96904227  0.28461540  0.33570169     0.44100
H2508       H  0.84007416  0.27226527  0.30137189     0.42820
H2509       H  0.85666917  0.37035960  0.42154275     0.42960
H2510       H  0.99377854  0.39300839  0.45797995     0.43320
O2511       O  0.92691334  0.15545697  0.39887717    -0.75550
O2512       O  0.90659351  0.14041976  0.35570568    -0.54460
C2513       C  0.91625695  0.15752397  0.37682425     0.78180
O2514       O  0.98283341  0.07210435  0.38414083    -0.60150
O2515       O  0.96633193  0.05564027  0.42485183    -0.53180
C2516       C  0.98250577  0.06055647  0.40550151     0.70190
O2517       O  0.96908288  0.11803595  0.32536180    -0.74710
O2518       O  0.93326903  0.12050345  0.31252233    -0.55280
C2519       C  0.95713126  0.12556994  0.30979330     0.76190
O2520       O  0.96045292  0.12893550  0.46022668    -0.59860
O2521       O  0.95649492  0.08973285  0.46636930    -0.52980
C2522       C  0.96633054  0.11435089  0.47270879     0.72780
Zr2523     Zr  0.93456738  0.12459797  0.41970403     2.54710
O2524       O  0.97506849  0.16552307  0.42205526    -0.80420
O2525       O  0.91660068  0.14014390  0.45692823    -0.93840
Zr2526     Zr  0.96108448  0.09263754  0.36373734     2.64680
O2527       O  0.00430851  0.12930331  0.37593846    -0.98790
O2528       O  0.97691349  0.07594135  0.32541778    -0.80860
O2529       O  0.94216998  0.11931125  0.37203980    -0.84210
O2530       O  0.95552084  0.09988213  0.41113857    -2.18920
O2531       O  0.85741917  0.03035872  0.44723240    -0.67600
O2532       O  0.89537085  0.03160708  0.45935391    -0.52170
C2533       C  0.87054140  0.02235995  0.46079460     0.71170
O2534       O  0.85927302  0.03283581  0.32585946    -0.60510
O2535       O  0.87975962  0.06856150  0.30448205    -0.52490
C2536       C  0.86452547  0.04400829  0.30368069     0.72970
O2537       O  0.90125585  0.00259798  0.37612723    -0.71910
O2538       O  0.92082455  0.01646191  0.41974888    -0.50580
C2539       C  0.91116801  0.99994619  0.39829126     0.74350
O2540       O  0.83852183  0.07111420  0.38372632    -0.67240
O2541       O  0.85791138  0.09297061  0.34617545    -0.54430
C2542       C  0.83871020  0.08219823  0.36194641     0.72730
Zr2543     Zr  0.86620108  0.06220388  0.41309870     2.77540
O2544       O  0.82008152  0.03023199  0.41131249    -0.97980
O2545       O  0.85897217  0.08739489  0.45070018    -0.78810
Zr2546     Zr  0.89165298  0.03164044  0.35489418     2.70070
O2547       O  0.85266597  0.48955190  0.34944114    -0.80050
O2548       O  0.90502314  0.01707190  0.31269050    -0.99140
Zr2549     Zr  0.90086322  0.09743511  0.34727475     2.21500
Zr2550     Zr  0.92730586  0.05924434  0.42755561     2.11130
O2551       O  0.88574204  0.03657363  0.40272659    -2.47820
O2552       O  0.87232762  0.05716002  0.36480024    -0.79850
O2553       O  0.90717793  0.08478730  0.43828656    -0.72040
O2554       O  0.92055858  0.07128447  0.33794313    -2.33000
O2555       O  0.89337137  0.10260558  0.39587354    -2.29210
O2556       O  0.93267530  0.05245303  0.37916698    -0.73800
H2557       H  0.97265274  0.10811568  0.42021619     0.78200
H2558       H  0.92291178  0.06900881  0.31833315     0.79280
H2559       H  0.87529632  0.01925300  0.40775045     0.81510
H2560       H  0.88476487  0.11270229  0.39866217     0.79120
H2561       H  0.96163350  0.05927192  0.31832829     0.42150
H2562       H  0.91658625  0.01086718  0.31939512     0.41120
H2563       H  0.84132909  0.99066621  0.36388373     0.40800
H2564       H  0.81935920  0.01335163  0.40767565     0.38730
H2565       H  0.86063383  0.08018878  0.46778397     0.41870
H2566       H  0.90120572  0.13964206  0.44809875     0.36650
H2567       H  0.98664796  0.16186980  0.41007924     0.42770
H2568       H  0.01128666  0.12432496  0.39146516     0.39180
H2569       H  0.81471233  0.03068066  0.43064335     0.44100
H2570       H  0.92939129  0.15875572  0.46069250     0.42820
H2571       H  0.51476420  0.12911895  0.36005774     0.42960
H2572       H  0.88912194  0.00121637  0.30499748     0.43320
O2573       O  0.50811900  0.41287083  0.13272947    -0.75550
O2574       O  0.52932392  0.43406847  0.17448837    -0.54460
C2575       C  0.51002051  0.42512961  0.15656175     0.78180
O2576       O  0.57068032  0.33860762  0.12487570    -0.60150
O2577       O  0.58834910  0.35154149  0.08315626    -0.53180
C2578       C  0.57923087  0.33498520  0.10151734     0.70190
O2579       O  0.54388460  0.37077033  0.19538172    -0.74710
O2580       O  0.55133735  0.41117155  0.20909525    -0.55280
C2581       C  0.54143470  0.38708217  0.21238288     0.76190
O2582       O  0.51981366  0.36676925  0.06430989    -0.59860
O2583       O  0.55487879  0.36493744  0.04730977    -0.52980
C2584       C  0.53001849  0.35732622  0.04698735     0.72780
Zr2585     Zr  0.53267567  0.39807357  0.10441618     2.54710
O2586       O  0.98933712  0.36363332  0.11230518    -0.80420
O2587       O  0.51739504  0.41524269  0.06949305    -0.93840
Zr2588     Zr  0.56571950  0.37139820  0.15250400     2.64680
O2589       O  0.52454926  0.33131509  0.15261188    -0.98790
O2590       O  0.58887091  0.35914099  0.18420955    -0.80860
O2591       O  0.54303090  0.39443305  0.15041573    -0.84210
O2592       O  0.55436204  0.37381880  0.10628724    -2.18920
O2593       O  0.61311701  0.46193098  0.05696008    -0.67600
O2594       O  0.60927111  0.42291680  0.04111903    -0.52170
C2595       C  0.61515425  0.44666365  0.03825233     0.71170
O2596       O  0.64244262  0.46262354  0.19282033    -0.60510
O2597       O  0.60625323  0.46441319  0.20612968    -0.52490
C2598       C  0.63050301  0.47108291  0.20900211     0.72970
O2599       O  0.65789162  0.42225201  0.11970457    -0.71910
O2600       O  0.63726837  0.40027476  0.07802846    -0.50580
C2601       C  0.65740026  0.41119336  0.09549538     0.74350
O2602       O  0.59476894  0.49514431  0.13380727    -0.67240
O2603       O  0.57640789  0.47958725  0.17428209    -0.54430
C2604       C  0.58584235  0.49733503  0.15770049     0.72730
Zr2605     Zr  0.59898778  0.46227581  0.10318661     2.77540
O2606       O  0.64161260  0.50083301  0.10432396    -0.97980
O2607       O  0.57778122  0.47910931  0.07493390    -0.78810
Zr2608     Zr  0.63215947  0.43491727  0.14926153     2.70070
O2609       O  0.67037697  0.47637600  0.14422272    -0.80050
O2610       O  0.65302468  0.41965781  0.18019206    -0.99140
Zr2611     Zr  0.57150711  0.43688678  0.17128030     2.21500
Zr2612     Zr  0.59289022  0.39496129  0.08072667     2.11130
O2613       O  0.62091186  0.43788747  0.10307873    -2.47820
O2614       O  0.61077792  0.45931208  0.14859547    -0.79850
O2615       O  0.57120663  0.41997917  0.08032286    -0.72040
O2616       O  0.59408327  0.41330587  0.17429638    -2.33000
O2617       O  0.55988360  0.44047625  0.12531492    -2.29210
O2618       O  0.60413110  0.39268630  0.12791077    -0.73800
H2619       H  0.54334299  0.35622736  0.09844551     0.78200
H2620       H  0.59842175  0.41271861  0.19341416     0.79280
H2621       H  0.63661235  0.44635903  0.09312007     0.81510
H2622       H  0.55116957  0.45050711  0.12516791     0.79120
H2623       H  0.58737417  0.36630728  0.20291896     0.42150
H2624       H  0.64759918  0.40185762  0.17213332     0.41120
H2625       H  0.66465905  0.48926771  0.14829511     0.40800
H2626       H  0.65293908  0.49501683  0.09494304     0.38730
H2627       H  0.56534784  0.46407145  0.06217101     0.41870
H2628       H  0.51861394  0.43111121  0.07913790     0.36650
H2629       H  0.99198220  0.35519527  0.12776585     0.42770
H2630       H  0.51731796  0.32705915  0.13316520     0.39180
H2631       H  0.63948482  0.01156420  0.09120365     0.44100
H2632       H  0.49848133  0.40297212  0.06691062     0.42820
H2633       H  0.52934194  0.31802173  0.15576456     0.42960
H2634       H  0.67177497  0.42969012  0.17677125     0.43320
O2635       O  0.64982511  0.11954100  0.32461135    -0.75550
O2636       O  0.68693812  0.11960218  0.31140823    -0.54460
C2637       C  0.66834978  0.12488240  0.30818046     0.78180
O2638       O  0.67213956  0.13095499  0.46133407    -0.60150
O2639       O  0.63592626  0.09247663  0.46713557    -0.53180
C2640       C  0.65154630  0.11684340  0.47374700     0.70190
O2641       O  0.73103059  0.15646438  0.39874766    -0.74710
O2642       O  0.73440060  0.14087779  0.35492985    -0.55280
C2643       C  0.74248570  0.15816496  0.37593108     0.76190
O2644       O  0.59149937  0.07746130  0.38668811    -0.59860
O2645       O  0.59149540  0.06039262  0.42705092    -0.52980
C2646       C  0.58036741  0.06594111  0.40812252     0.72780
Zr2647     Zr  0.63339645  0.09702573  0.36520240     2.54710
O2648       O  0.63136066  0.13613757  0.37848597    -0.80420
O2649       O  0.59751063  0.08169924  0.33055461    -0.93840
Zr2650     Zr  0.69276492  0.12603523  0.42028159     2.64680
O2651       O  0.69580187  0.16827180  0.42311938    -0.98790
O2652       O  0.72666773  0.13962573  0.45687461    -0.80860
O2653       O  0.67929320  0.12148687  0.37280988    -0.84210
O2654       O  0.64695491  0.10324513  0.41230941    -2.18920
O2655       O  0.59846171  0.00680284  0.37517366    -0.67600
O2656       O  0.59440382  0.02055680  0.41951033    -0.52170
C2657       C  0.58643192  0.00470750  0.39745922     0.71170
O2658       O  0.73112041  0.06908698  0.38267948    -0.60510
O2659       O  0.73451480  0.09238646  0.34610348    -0.52490
C2660       C  0.74228387  0.08054858  0.36122621     0.72970
O2661       O  0.67205976  0.03045952  0.44676603    -0.71910
O2662       O  0.63681513  0.03394281  0.45970866    -0.50580
C2663       C  0.65161178  0.02376018  0.46102779     0.74350
O2664       O  0.67187728  0.03299664  0.32798060    -0.67240
O2665       O  0.68868687  0.06814073  0.30547473    -0.54430
C2666       C  0.67873183  0.04355824  0.30548404     0.72730
Zr2667     Zr  0.63786947  0.03379478  0.35434111     2.77540
O2668       O  0.62661865  0.48879525  0.34438511    -0.97980
O2669       O  0.61182772  0.02425621  0.31127676    -0.78810
Zr2670     Zr  0.69484907  0.06125605  0.41193844     2.70070
O2671       O  0.70370134  0.02553297  0.40896060    -0.80050
O2672       O  0.72872150  0.08415750  0.44887294    -0.99140
Zr2673     Zr  0.69671115  0.09796874  0.34741790     2.21500
Zr2674     Zr  0.63296278  0.06190094  0.42791749     2.11130
O2675       O  0.64936051  0.03746338  0.40209665    -2.47820
O2676       O  0.68296904  0.05689854  0.36398419    -0.79850
O2677       O  0.62014328  0.05627326  0.37985796    -0.72040
O2678       O  0.70992936  0.10245292  0.39570324    -2.33000
O2679       O  0.65063389  0.07426283  0.33840250    -2.29210
O2680       O  0.67875941  0.08548349  0.43802185    -0.73800
H2681       H  0.63882592  0.11210621  0.42167178     0.78200
H2682       H  0.72866551  0.11190971  0.39822026     0.79280
H2683       H  0.64183358  0.02008319  0.40720417     0.81510
H2684       H  0.64600224  0.07243167  0.31883165     0.79120
H2685       H  0.74098768  0.13847439  0.44754929     0.42150
H2686       H  0.71936809  0.07994280  0.46628350     0.41120
H2687       H  0.69046089  0.01251401  0.39498111     0.40800
H2688       H  0.62611887  0.48256208  0.36281028     0.38730
H2689       H  0.59644148  0.02554933  0.31707945     0.41870
H2690       H  0.60325087  0.07570254  0.31368045     0.36650
H2691       H  0.64914174  0.15035492  0.37608537     0.42770
H2692       H  0.67769629  0.16477416  0.42484013     0.39180
H2693       H  0.60830298  0.47958026  0.33697761     0.44100
H2694       H  0.59746049  0.09743334  0.32579975     0.42820
H2695       H  0.70460542  0.17689250  0.44151994     0.42960
H2696       H  0.73860048  0.07475765  0.44833061     0.43320
O2697       O  0.53483829  0.17820725  0.20832889    -0.75550
O2698       O  0.54283503  0.14797276  0.22509061    -0.54460
C2699       C  0.53083199  0.16112420  0.22516024     0.78180
O2700       O  0.53061008  0.14659775  0.07668820    -0.60150
O2701       O  0.56714741  0.18174018  0.06426996    -0.53180
C2702       C  0.54343417  0.16323398  0.05989684     0.70190
O2703       O  0.50831301  0.10143180  0.14764064    -0.74710
O2704       O  0.52561180  0.10125690  0.18959761    -0.55280
C2705       C  0.50691386  0.09191843  0.17067585     0.76190
O2706       O  0.57117655  0.23355623  0.14165054    -0.59860
O2707       O  0.59214663  0.23202737  0.10245438    -0.52980
C2708       C  0.58150384  0.24211037  0.11849776     0.72780
Zr2709     Zr  0.56510665  0.19967610  0.17196429     2.54710
O2710       O  0.52865127  0.20782053  0.17232503    -0.80420
O2711       O  0.58799859  0.23556373  0.20783419    -0.93840
Zr2712     Zr  0.53624529  0.13568115  0.12134395     2.64680
O2713       O  0.99482003  0.13512965  0.12284192    -0.98790
O2714       O  0.51819991  0.09654939  0.08925547    -0.80860
O2715       O  0.54321433  0.15391451  0.16766138    -0.84210
O2716       O  0.55703884  0.18118369  0.12496169    -2.18920
O2717       O  0.65970147  0.23655391  0.14671292    -0.67600
O2718       O  0.64120137  0.23121591  0.10326022    -0.52170
C2719       C  0.65990680  0.24326216  0.12190060     0.71170
O2720       O  0.59927388  0.10469950  0.15247176    -0.60510
O2721       O  0.57568703  0.10207931  0.19044775    -0.52490
C2722       C  0.58840713  0.09431215  0.17427779     0.72970
O2723       O  0.62124010  0.14872792  0.08103169    -0.71910
O2724       O  0.61775490  0.18205790  0.06611067    -0.50580
C2725       C  0.62452552  0.16454827  0.06332978     0.74350
O2726       O  0.64051923  0.17969203  0.21201832    -0.67240
O2727       O  0.60227347  0.14738392  0.22598841    -0.54430
C2728       C  0.62733309  0.16123787  0.22729586     0.72730
Zr2729     Zr  0.63213394  0.20169267  0.17575880     2.77540
O2730       O  0.67750380  0.21268673  0.18167238    -0.97980
O2731       O  0.64092164  0.23621268  0.21206437    -0.78810
Zr2732     Zr  0.60327549  0.13773941  0.12501886     2.70070
O2733       O  0.64638481  0.14228640  0.12873464    -0.80050
O2734       O  0.58452170  0.09738366  0.09483829    -0.99140
Zr2735     Zr  0.56900315  0.13980898  0.19067616     2.21500
Zr2736     Zr  0.59799284  0.19473437  0.10455592     2.11130
O2737       O  0.62559805  0.18329599  0.12877281    -2.47820
O2738       O  0.61045032  0.15603309  0.17125265    -0.79850
O2739       O  0.60585219  0.21426972  0.15170119    -0.72040
O2740       O  0.56192258  0.12171294  0.14352456    -2.33000
O2741       O  0.59113337  0.18653078  0.19652777    -2.29210
O2742       O  0.57632038  0.14893938  0.10047100    -0.73800
H2743       H  0.54664771  0.18659921  0.11506259     0.78200
H2744       H  0.55314995  0.10309516  0.14206760     0.79280
H2745       H  0.64212790  0.18942734  0.12031670     0.81510
H2746       H  0.59348092  0.19273486  0.21603673     0.79120
H2747       H  0.52853733  0.08825487  0.09356394     0.42150
H2748       H  0.57710536  0.10064982  0.07827381     0.41120
H2749       H  0.65566902  0.15617918  0.14403469     0.40800
H2750       H  0.68281260  0.21051574  0.16266723     0.38730
H2751       H  0.64524344  0.25136153  0.20187453     0.41870
H2752       H  0.57813118  0.22954194  0.22467807     0.36650
H2753       H  0.51634995  0.19535690  0.15730538     0.42770
H2754       H  0.99923840  0.15320397  0.12136437     0.39180
H2755       H  0.68719425  0.23152256  0.18713937     0.44100
H2756       H  0.58421147  0.24900750  0.20241690     0.42820
H2757       H  0.98541386  0.12566614  0.10493421     0.42960
H2758       H  0.59969006  0.09613243  0.08810824     0.43320
O2759       O  0.82162196  0.46406321  0.18976958    -0.75550
O2760       O  0.85877512  0.46476549  0.20442896    -0.54460
C2761       C  0.84162313  0.47206814  0.20662289     0.78180
O2762       O  0.76628643  0.34032799  0.12766409    -0.60150
O2763       O  0.76209220  0.35090447  0.08419771    -0.53180
C2764       C  0.75364460  0.33637822  0.10445125     0.70190
O2765       O  0.82735245  0.37250592  0.19712356    -0.74710
O2766       O  0.86160510  0.41278098  0.20899173    -0.55280
C2767       C  0.84677280  0.38912444  0.21347383     0.76190
O2768       O  0.76606688  0.42230094  0.11552905    -0.59860
O2769       O  0.76291054  0.39775305  0.07530606    -0.52980
C2770       C  0.75446155  0.40975459  0.09206972     0.72780
Zr2771     Zr  0.80380691  0.43539181  0.14653138     2.54710
O2772       O  0.76746934  0.41888867  0.17685562    -0.80420
O2773       O  0.80114971  0.47386271  0.13963189    -0.93840
Zr2774     Zr  0.80635940  0.37155563  0.15287673     2.64680
O2775       O  0.77432314  0.36024954  0.18820875    -0.98790
O2776       O  0.80524980  0.33022404  0.15021365    -0.80860
O2777       O  0.81980767  0.41403431  0.17308907    -0.84210
O2778       O  0.78939104  0.39270035  0.12724203    -2.18920
O2779       O  0.84765686  0.45958359  0.05427619    -0.67600
O2780       O  0.81208412  0.42055500  0.03965160    -0.52170
C2781       C  0.82962418  0.44429952  0.03625137     0.71170
O2782       O  0.90610366  0.41479283  0.13138074    -0.60510
O2783       O  0.90576034  0.43556422  0.17322453    -0.52490
C2784       C  0.91653955  0.42743807  0.15510382     0.72970
O2785       O  0.84484038  0.36213147  0.06647684    -0.71910
O2786       O  0.80954767  0.36228355  0.04747518    -0.50580
C2787       C  0.82593833  0.35366608  0.04821735     0.74350
O2788       O  0.90113278  0.49226045  0.12893322    -0.67240
O2789       O  0.90281525  0.47966800  0.17170176    -0.54430
C2790       C  0.91140237  0.49613218  0.15370126     0.72730
Zr2791     Zr  0.86372054  0.45946856  0.09948080     2.77540
O2792       O  0.90108896  0.47323154  0.07065019    -0.97980
O2793       O  0.86054067  0.49826871  0.09725678    -0.78810
Zr2794     Zr  0.86512226  0.39558340  0.10450178     2.70070
O2795       O  0.89621124  0.40776108  0.06814610    -0.80050
O2796       O  0.87405593  0.36219418  0.11736491    -0.99140
Zr2797     Zr  0.86575496  0.43694117  0.16980698     2.21500
Zr2798     Zr  0.80196149  0.39292844  0.07971574     2.11130
O2799       O  0.84857772  0.41663907  0.07845822    -2.47820
O2800       O  0.88065277  0.43841476  0.12393763    -0.79850
O2801       O  0.81765177  0.43631629  0.10037959    -0.72040
O2802       O  0.85192692  0.39389683  0.15051907    -2.33000
O2803       O  0.84947853  0.45906138  0.14486547    -2.29210
O2804       O  0.81928706  0.37211059  0.10628049    -0.73800
H2805       H  0.77071077  0.38383129  0.12795040     0.78200
H2806       H  0.85996111  0.38612504  0.16053870     0.79280
H2807       H  0.85381021  0.41679670  0.05952828     0.81510
H2808       H  0.85610457  0.47664199  0.15283899     0.79120
H2809       H  0.82316609  0.33456953  0.15589927     0.42150
H2810       H  0.85671810  0.34673218  0.11790708     0.41120
H2811       H  0.90585509  0.42685197  0.07059969     0.40800
H2812       H  0.89459672  0.46104480  0.05354395     0.38730
H2813       H  0.84165544  0.49221518  0.09716393     0.41870
H2814       H  0.81866905  0.48848213  0.14543400     0.36650
H2815       H  0.77496887  0.41791651  0.19476176     0.42770
H2816       H  0.76547230  0.37022738  0.18499448     0.39180
H2817       H  0.90405675  0.48980929  0.06460075     0.44100
H2818       H  0.78979027  0.47468070  0.15421419     0.42820
H2819       H  0.76109304  0.34204123  0.18266608     0.42960
H2820       H  0.88203433  0.35836018  0.10099036     0.43320
C2821       C  0.96012735  0.06721183  0.15848315    -0.09420
C2822       C  0.98131613  0.06876416  0.17361218     0.06780
C2823       C  0.97778763  0.04680221  0.18581115    -0.03190
C2824       C  0.95444766  0.02331352  0.17994958    -0.07630
C2825       C  0.93457972  0.02144560  0.16202840     0.05890
C2826       C  0.93730302  0.04406513  0.15223557    -0.02660
Br2827     Br  0.91102474  0.04538648  0.13003763    -0.02350
H2828       H  0.96184855  0.08404991  0.14980868     0.09810
H2829       H  0.95231314  0.50624539  0.18842371     0.07820
Br2830     Br  0.50415450  0.04727483  0.20928358    -0.02780
C2831       C  0.68963702  0.29024766  0.13119845    -0.09420
C2832       C  0.68289596  0.26725268  0.11472745     0.06780
C2833       C  0.69753997  0.26804392  0.09137902    -0.03190
C2834       C  0.71974949  0.29133794  0.08625362    -0.07630
C2835       C  0.72685545  0.31418907  0.10343430     0.05890
C2836       C  0.71069424  0.31358080  0.12514175    -0.02660
Br2837     Br  0.71677667  0.34436081  0.14742745    -0.02350
H2838       H  0.67806585  0.29015727  0.14857223     0.09810
H2839       H  0.73212341  0.29130222  0.06980534     0.07820
Br2840     Br  0.68919992  0.23747709  0.06739306    -0.02780
C2841       C  0.63754602  0.12847205  0.24243832    -0.09420
C2842       C  0.64195013  0.15386068  0.24611789     0.06780
C2843       C  0.65977378  0.17107269  0.26760325    -0.03190
C2844       C  0.67120652  0.16215483  0.28620377    -0.07630
C2845       C  0.66574940  0.13634336  0.28328980     0.05890
C2846       C  0.64934973  0.11974653  0.26058078    -0.02660
Br2847     Br  0.64008811  0.08404217  0.25541372    -0.02350
H2848       H  0.62422297  0.11508191  0.22578086     0.09810
H2849       H  0.68290654  0.17491583  0.30414193     0.07820
Br2850     Br  0.66673793  0.20598099  0.27420151    -0.02780
C2851       C  0.62090238  0.15168248  0.01297459    -0.09420
C2852       C  0.63599120  0.16026724  0.03803885     0.06780
C2853       C  0.65748315  0.15626737  0.04074180    -0.03190
C2854       C  0.66179377  0.14140243  0.01989905    -0.07630
C2855       C  0.64521434  0.13072944  0.49598713     0.05890
C2856       C  0.62576958  0.13741702  0.49170668    -0.02660
Br2857     Br  0.60630637  0.12864016  0.45684932    -0.02350
H2858       H  0.60442213  0.15471921  0.01055455     0.09810
H2859       H  0.67798120  0.13793733  0.02247896     0.07820
Br2860     Br  0.68057385  0.16948542  0.07342412    -0.02780
C2861       C  0.61636138  0.48448976  0.48026687    -0.09420
C2862       C  0.64317003  0.00152119  0.47853894     0.06780
C2863       C  0.66065766  0.99622646  0.99294607    -0.03190
C2864       C  0.65116592  0.47545497  0.00967113    -0.07630
C2865       C  0.62429315  0.45897965  0.01196404     0.05890
C2866       C  0.60701568  0.46338799  0.99619071    -0.02660
Br2867     Br  0.57005902  0.44236799  0.99816626    -0.02350
H2868       H  0.60238250  0.48778175  0.46941757     0.09810
H2869       H  0.66487779  0.47343090  0.02267589     0.07820
Br2870     Br  0.69762285  0.01849236  0.99350101    -0.02780
C2871       C  0.65250681  0.48235508  0.25588390    -0.09420
C2872       C  0.64600966  0.49033615  0.23231158     0.06780
C2873       C  0.65460010  0.01670882  0.23123649    -0.03190
C2874       C  0.66738153  0.03439223  0.25455579    -0.07630
C2875       C  0.67206545  0.02619193  0.27921330     0.05890
C2876       C  0.66558631  0.49993723  0.27914889    -0.02660
Br2877     Br  0.67375618  0.48629324  0.30979938    -0.02350
H2878       H  0.64687847  0.46222198  0.25641976     0.09810
H2879       H  0.67248963  0.05434798  0.25376759     0.07820
Br2880     Br  0.64944090  0.02938151  0.19824984    -0.02780
C2881       C  0.56747962  0.04816884  0.18380962    -0.09420
C2882       C  0.58999087  0.07088736  0.17868717     0.06780
C2883       C  0.61204283  0.06920641  0.17036163    -0.03190
C2884       C  0.61006090  0.04517917  0.16329625    -0.07630
C2885       C  0.58709023  0.02229848  0.16678127     0.05890
C2886       C  0.56603721  0.02403050  0.17850694    -0.02660
Br2887     Br  0.53385485  0.49425202  0.18497430    -0.02350
H2888       H  0.55038310  0.04898594  0.19002949     0.09810
H2889       H  0.62666309  0.04441755  0.15496577     0.07820
Br2890     Br  0.64544039  0.09922150  0.16789794    -0.02780
C2891       C  0.60246668  0.30963289  0.09723918    -0.09420
C2892       C  0.57887073  0.30986859  0.09734339     0.06780
C2893       C  0.55590174  0.28674687  0.10150614    -0.03190
C2894       C  0.55705883  0.26488455  0.10796143    -0.07630
C2895       C  0.58085491  0.26510664  0.10959121     0.05890
C2896       C  0.60354593  0.28749319  0.10298435    -0.02660
Br2897     Br  0.63698303  0.28994002  0.10428152    -0.02350
H2898       H  0.62039105  0.32724552  0.09464516     0.09810
H2899       H  0.53927591  0.24768804  0.11199778     0.07820
Br2900     Br  0.52238705  0.28432503  0.09898934    -0.02780
C2901       C  0.68312447  0.39064243  0.07420368    -0.09420
C2902       C  0.68248215  0.41198184  0.08835919     0.06780
C2903       C  0.70652885  0.43349453  0.09866397    -0.03190
C2904       C  0.72954913  0.43268765  0.09667267    -0.07630
C2905       C  0.73008618  0.41058643  0.08541465     0.05890
C2906       C  0.70668931  0.38979581  0.07268177    -0.02660
Br2907     Br  0.70548370  0.35942838  0.05462523    -0.02350
H2908       H  0.66513407  0.37400812  0.06576928     0.09810
H2909       H  0.74730668  0.44937572  0.10559818     0.07820
Br2910     Br  0.71030767  0.46493753  0.11714085    -0.02780
C2911       C  0.94857059  0.42182185  0.18230663    -0.09420
C2912       C  0.94310854  0.43313183  0.16089255     0.06780
C2913       C  0.96181412  0.44551186  0.14150195    -0.03190
C2914       C  0.98454060  0.44417863  0.14196030    -0.07630
C2915       C  0.98909778  0.43089929  0.16174297     0.05890
C2916       C  0.97162534  0.42063448  0.18283552    -0.02660
Br2917     Br  0.97684420  0.40214843  0.21027685    -0.02350
H2918       H  0.93406805  0.41212659  0.19715622     0.09810
H2919       H  0.99818821  0.45244801  0.12590840     0.07820
Br2920     Br  0.95629114  0.46280142  0.11269533    -0.02780
C2921       C  0.53229558  0.14552482  0.01110362    -0.09420
C2922       C  0.52849171  0.15905976  0.03401287     0.06780
C2923       C  0.00465145  0.15892287  0.03570183    -0.03190
C2924       C  0.98426186  0.14347650  0.01609898    -0.07630
C2925       C  0.98728102  0.12811839  0.49449557     0.05890
C2926       C  0.51201896  0.13048468  0.49111694    -0.02660
Br2927     Br  0.51955355  0.11485174  0.45893614    -0.02350
H2928       H  0.55048055  0.14532613  0.00967369     0.09810
H2929       H  0.96587762  0.14321526  0.01789746     0.07820
Br2930     Br  0.99864422  0.17808944  0.06590063    -0.02780
C2931       C  0.96550439  0.13028467  0.25926452    -0.09420
C2932       C  0.97308723  0.14034973  0.28717435     0.06780
C2933       C  0.99918029  0.16001762  0.29356849    -0.03190
C2934       C  0.51758252  0.16722499  0.27305873    -0.07630
C2935       C  0.51042827  0.15568277  0.24564964     0.05890
C2936       C  0.98387589  0.13806202  0.23856698    -0.02660
Br2937     Br  0.97213006  0.12308330  0.20111024    -0.02350
H2938       H  0.94573689  0.11505025  0.25383321     0.09810
H2939       H  0.53771073  0.18135295  0.27874126     0.07820
Br2940     Br  0.51088462  0.17672390  0.33063879    -0.02780
C2941       C  0.86242718  0.47977661  0.47538965    -0.09420
C2942       C  0.85597861  0.99959642  0.47738927     0.06780
C2943       C  0.83598034  0.99711462  0.99500436    -0.03190
C2944       C  0.82410578  0.47603907  0.01122082    -0.07630
C2945       C  0.83141223  0.45682183  0.01028335     0.05890
C2946       C  0.85021483  0.45865689  0.99131348    -0.02660
Br2947     Br  0.86225361  0.43412222  0.98906803    -0.02350
H2948       H  0.87745639  0.48104326  0.46179518     0.09810
H2949       H  0.81074855  0.47594394  0.02655448     0.07820
Br2950     Br  0.82637433  0.02340731  0.00040712    -0.02780
C2951       C  0.82910114  0.48411930  0.25212381    -0.09420
C2952       C  0.84543876  0.49148890  0.22989524     0.06780
C2953       C  0.86525742  0.01738499  0.23025853    -0.03190
C2954       C  0.86982938  0.03498802  0.25356563    -0.07630
C2955       C  0.85475904  0.02724517  0.27688460     0.05890
C2956       C  0.83344415  0.00164486  0.27543512    -0.02660
Br2957     Br  0.80930763  0.98904164  0.30433461    -0.02350
H2958       H  0.81324945  0.46444459  0.25164622     0.09810
H2959       H  0.88611829  0.05441739  0.25396741     0.07820
Br2960     Br  0.88653074  0.02966019  0.19936293    -0.02780
C2961       C  0.53758027  0.05014800  0.38464475    -0.09420
C2962       C  0.55256545  0.05802355  0.40978667     0.06780
C2963       C  0.54080813  0.05943930  0.43479803    -0.03190
C2964       C  0.51617271  0.05743227  0.43354657    -0.07630
C2965       C  0.50313729  0.05367691  0.40776511     0.05890
C2966       C  0.51287339  0.04741458  0.38355917    -0.02660
Br2967     Br  0.49338473  0.03511261  0.34841676    -0.02350
H2968       H  0.54547338  0.04688074  0.36548605     0.09810
H2969       H  0.50809001  0.06059206  0.45257152     0.07820
Br2970     Br  0.55769998  0.06581389  0.47088305    -0.02780
C2971       C  0.78967531  0.10453445  0.35585734    -0.09420
C2972       C  0.76652465  0.08078799  0.35456928     0.06780
C2973       C  0.76751938  0.05771656  0.35154730    -0.03190
C2974       C  0.79150227  0.05862608  0.35181557    -0.07630
C2975       C  0.81465908  0.08232306  0.35517433     0.05890
C2976       C  0.81376440  0.10545878  0.35646849    -0.02660
Br2977     Br  0.84455314  0.13855492  0.36307340    -0.02350
H2978       H  0.78905465  0.12237645  0.35860503     0.09810
H2979       H  0.79208935  0.04075956  0.35079631     0.07820
Br2980     Br  0.73671772  0.02453411  0.34819211    -0.02780
C2981       C  0.96463583  0.31172935  0.00858044    -0.09420
C2982       C  0.97183681  0.31290139  0.48104025     0.06780
C2983       C  0.49852044  0.32138616  0.47641360    -0.03190
C2984       C  0.51774689  0.33423315  0.49823251    -0.07630
C2985       C  0.51072643  0.33690198  0.02543323     0.05890
C2986       C  0.98374346  0.32254513  0.03064903    -0.02660
Br2987     Br  0.97156451  0.31671814  0.06744517    -0.02350
H2988       H  0.94436157  0.30421169  0.01300045     0.09810
H2989       H  0.53808742  0.34344727  0.49355740     0.07820
Br2990     Br  0.50981328  0.31806789  0.43985171    -0.02780
C2991       C  0.99386422  0.34415450  0.26376586    -0.09420
C2992       C  0.98960377  0.36222627  0.28001405     0.06780
C2993       C  0.00430084  0.38850259  0.27525147    -0.03190
C2994       C  0.52173719  0.39584787  0.25415916    -0.07630
C2995       C  0.52512155  0.37775345  0.23680747     0.05890
C2996       C  0.51128685  0.35151801  0.24234938    -0.02660
Br2997     Br  0.51455095  0.32428124  0.22203445    -0.02350
H2998       H  0.98315209  0.32397448  0.26733513     0.09810
H2999       H  0.53228514  0.41612397  0.25100318     0.07820
Br3000     Br  0.00260898  0.41617590  0.29659500    -0.02780
C3001       C  0.90186866  0.43649039  0.37100215    -0.09420
C3002       C  0.92485852  0.43841835  0.38110910     0.06780
C3003       C  0.94185476  0.45911971  0.40031262    -0.03190
C3004       C  0.93655248  0.47897714  0.40730253    -0.07630
C3005       C  0.91340262  0.47700204  0.39702565     0.05890
C3006       C  0.89529956  0.45482074  0.38016321    -0.02660
Br3007     Br  0.86041373  0.44710256  0.37124278    -0.02350
H3008       H  0.88769238  0.41925544  0.35829421     0.09810
H3009       H  0.95050307  0.99591291  0.42048493     0.07820
Br3010     Br  0.97099184  0.45998349  0.41905194    -0.02780
C3011       C  0.91168553  0.19179911  0.40357599    -0.09420
C3012       C  0.91385693  0.18081645  0.37745738     0.06780
C3013       C  0.91380490  0.19244067  0.35344343    -0.03190
C3014       C  0.91220716  0.21495158  0.35607496    -0.07630
C3015       C  0.91116898  0.22656150  0.38235001     0.05890
C3016       C  0.91061604  0.21454489  0.40630834    -0.02660
Br3017     Br  0.91025166  0.22859573  0.44353554    -0.02350
H3018       H  0.91122557  0.18283894  0.42226577     0.09810
H3019       H  0.91245686  0.22379079  0.33735645     0.07820
Br3020     Br  0.91785791  0.17996101  0.31685808    -0.02780
C3021       C  0.54018651  0.43568943  0.38895588    -0.09420
C3022       C  0.51859504  0.43536187  0.37633715     0.06780
C3023       C  0.51948715  0.45870168  0.37180967    -0.03190
C3024       C  0.54103758  0.48181393  0.38235007    -0.07630
C3025       C  0.56180084  0.48174095  0.39627428     0.05890
C3026       C  0.56166600  0.45862781  0.39889615    -0.02660
Br3027     Br  0.59125684  0.45748674  0.41352422    -0.02350
H3028       H  0.54011647  0.41786684  0.39168171     0.09810
H3029       H  0.54235331  0.99992093  0.37821479     0.07820
Br3030     Br  0.99294677  0.46062946  0.35084333    -0.02780
C3031       C  0.79017693  0.18137245  0.38088300    -0.09420
C3032       C  0.76719193  0.18176484  0.37495396     0.06780
C3033       C  0.76780063  0.20535357  0.37360451    -0.03250
C3034       C  0.79142012  0.22826673  0.37777605    -0.07630
C3035       C  0.81456604  0.22808500  0.38390591     0.05890
C3036       C  0.81385612  0.20436783  0.38546223    -0.02660
Br3037     Br  0.84441745  0.20205371  0.39269829    -0.02350
H3038       H  0.78955741  0.16317505  0.38276575     0.09810
H3039       H  0.79172573  0.24637489  0.37628724     0.07820
Br3040     Br  0.73677192  0.20707031  0.36644073    -0.02780
C3041       C  0.84732170  0.31027090  0.00822986    -0.09420
C3042       C  0.84267492  0.31346112  0.48088425     0.06780
C3043       C  0.82470144  0.32226905  0.47632618    -0.03190
C3044       C  0.81702957  0.33335408  0.99858032    -0.07630
C3045       C  0.82529196  0.33404685  0.02597131     0.05890
C3046       C  0.83779747  0.31941043  0.03055609    -0.02660
Br3047     Br  0.84228188  0.31099676  0.06676765    -0.02350
H3048       H  0.85982123  0.30236168  0.01245816     0.09810
H3049       H  0.80610159  0.34290355  0.99421924     0.07820
Br3050     Br  0.81155585  0.32130002  0.43963690    -0.02780
C3051       C  0.84822455  0.35391971  0.23586836    -0.09420
C3052       C  0.85374401  0.37974606  0.23784234     0.06780
C3053       C  0.86799512  0.39630812  0.26177151    -0.03190
C3054       C  0.87725338  0.38719533  0.28223839    -0.07630
C3055       C  0.87230639  0.36161939  0.27978651     0.05890
C3056       C  0.85733063  0.34481065  0.25648005    -0.02660
Br3057     Br  0.85065927  0.30993626  0.25038073    -0.02350
H3058       H  0.83767772  0.34091484  0.21759134     0.09810
H3059       H  0.88825632  0.40016851  0.30037901     0.07820
Br3060     Br  0.87472765  0.43122284  0.26854668    -0.02780
O3061       O  0.86787018  0.33180871  0.81168388    -0.75550
O3062       O  0.90689079  0.36863193  0.81034881    -0.54460
C3063       C  0.88307187  0.35330629  0.80182904     0.78180
O3064       O  0.86903952  0.33681812  0.94729262    -0.60150
O3065       O  0.87051158  0.30027971  0.95388026    -0.53180
C3066       C  0.86178796  0.31636981  0.95928051     0.70190
O3067       O  0.91378396  0.40172114  0.90049574    -0.74710
O3068       O  0.93193489  0.40672568  0.85818014    -0.55280
C3069       C  0.92437109  0.41443157  0.87991170     0.76190
O3070       O  0.84099275  0.26638859  0.86518448    -0.59860
O3071       O  0.85616635  0.25900454  0.90510474    -0.52980
C3072       C  0.83901281  0.25268106  0.88500852     0.72780
Zr3073     Zr  0.87043278  0.30696629  0.84808152     2.54710
O3074       O  0.82776784  0.30369312  0.84957543    -0.80420
O3075       O  0.85735692  0.27517894  0.80764696    -0.93840
Zr3076     Zr  0.89786952  0.35914679  0.91282012     2.64680
O3077       O  0.86150635  0.36602775  0.90308452    -0.98790
O3078       O  0.91080153  0.38698896  0.95640547    -0.80860
O3079       O  0.89210216  0.35129505  0.86389488    -0.84210
O3080       O  0.87455560  0.31479693  0.89737518    -2.18920
O3081       O  0.92386532  0.26524933  0.86358518    -0.67600
O3082       O  0.90276909  0.25884146  0.90411616    -0.52170
C3083       C  0.91257344  0.25184312  0.88367607     0.71170
O3084       O  0.99252756  0.39682767  0.89361317    -0.60510
O3085       O  0.97701440  0.40536107  0.85519350    -0.52490
C3086       C  0.99451049  0.41090343  0.87432178     0.72970
O3087       O  0.96903442  0.33519150  0.94627578    -0.71910
O3088       O  0.93058111  0.29985700  0.95403764    -0.50580
C3089       C  0.95557609  0.31535549  0.95896435     0.74350
O3090       O  0.96523425  0.33260627  0.81265678    -0.67240
O3091       O  0.95962606  0.36715365  0.80859531    -0.54430
C3092       C  0.97021899  0.35339092  0.80175509     0.72730
Zr3093     Zr  0.93604065  0.30621781  0.84703205     2.77540
O3094       O  0.97458379  0.30135041  0.84679324    -0.97980
O3095       O  0.91674698  0.27671085  0.80498534    -0.78810
Zr3096     Zr  0.96300301  0.35769608  0.91182877     2.70070
O3097       O  0.00636108  0.36280309  0.90995654    -0.80050
O3098       O  0.97570914  0.38863075  0.95298914    -0.99140
Zr3099     Zr  0.93447669  0.36823889  0.84715040     2.21500
Zr3100     Zr  0.89885177  0.29686960  0.91647476     2.11130
O3101       O  0.94050707  0.31344035  0.89641336    -2.47820
O3102       O  0.95947842  0.35027838  0.86294724    -0.79850
O3103       O  0.89471598  0.28939290  0.86633612    -0.72040
O3104       O  0.93990162  0.37682852  0.89641160    -2.33000
O3105       O  0.91187006  0.32405401  0.82922650    -2.29210
O3106       O  0.92204711  0.34164870  0.93193679    -0.73800
H3107       H  0.85713447  0.30699139  0.90384668     0.78200
H3108       H  0.95006134  0.39496204  0.90267744     0.79280
H3109       H  0.94975802  0.30515087  0.90273461     0.81510
H3110       H  0.91069691  0.32208586  0.80913253     0.79120
H3111       H  0.93000809  0.39720367  0.95639705     0.42150
H3112       H  0.96534496  0.37841976  0.96791418     0.41120
H3113       H  0.50633602  0.35415485  0.89152681     0.40800
H3114       H  0.97716364  0.29834074  0.86608726     0.38730
H3115       H  0.90008011  0.26268017  0.81070218     0.41870
H3116       H  0.86901444  0.28443159  0.79299483     0.36650
H3117       H  0.83131487  0.32172239  0.85042995     0.42770
H3118       H  0.84699960  0.34871085  0.89643375     0.39180
H3119       H  0.96904146  0.28461560  0.83570197     0.44100
H3120       H  0.84007514  0.27226611  0.80137277     0.42820
H3121       H  0.85666765  0.37035805  0.92154233     0.42960
H3122       H  0.99377925  0.39300888  0.95798092     0.43320
O3123       O  0.92693285  0.15547601  0.89886104    -0.75550
O3124       O  0.90660058  0.14043071  0.85569512    -0.54460
C3125       C  0.91626687  0.15753659  0.87681228     0.78180
O3126       O  0.98285332  0.07211648  0.88411742    -0.60150
O3127       O  0.96635869  0.05566493  0.92483399    -0.53180
C3128       C  0.98252735  0.06057302  0.90548191     0.70190
O3129       O  0.96909173  0.11804859  0.82533964    -0.74710
O3130       O  0.93327775  0.12051838  0.81250416    -0.55280
C3131       C  0.95713908  0.12558420  0.80977552     0.76190
O3132       O  0.96046298  0.12895254  0.96021615    -0.59860
O3133       O  0.95652229  0.08975359  0.96633664    -0.52980
C3134       C  0.96634542  0.11436756  0.97269080     0.72780
Zr3135     Zr  0.93459378  0.12462098  0.91968067     2.54710
O3136       O  0.97509031  0.16555050  0.92204380    -0.80420
O3137       O  0.91661124  0.14014460  0.95690923    -0.93840
Zr3138     Zr  0.96110597  0.09265293  0.86371111     2.64680
O3139       O  0.00433175  0.12931629  0.87591105    -0.98790
O3140       O  0.97693713  0.07595849  0.82539240    -0.80860
O3141       O  0.94218653  0.11932318  0.87201493    -0.84210
O3142       O  0.95555568  0.09991297  0.91111169    -2.18920
O3143       O  0.85750950  0.03044452  0.94723593    -0.67600
O3144       O  0.89545514  0.03167346  0.95934943    -0.52170
C3145       C  0.87063573  0.02245805  0.96080815     0.71170
O3146       O  0.85928251  0.03284840  0.82585148    -0.60510
O3147       O  0.87976245  0.06856955  0.80446595    -0.52490
C3148       C  0.86452882  0.04401646  0.80367002     0.72970
O3149       O  0.90126111  0.00260358  0.87610868    -0.71910
O3150       O  0.92084252  0.01648252  0.91972354    -0.50580
C3151       C  0.91117624  0.99995766  0.89827421     0.74350
O3152       O  0.83853400  0.07112173  0.88370156    -0.67240
O3153       O  0.85792133  0.09298282  0.84615395    -0.54430
C3154       C  0.83871925  0.08220611  0.86192349     0.72730
Zr3155     Zr  0.86623281  0.06223296  0.91306778     2.77540
O3156       O  0.82011925  0.03024920  0.91132072    -0.97980
O3157       O  0.85898696  0.08741854  0.95066014    -0.78810
Zr3158     Zr  0.89167271  0.03165347  0.85486944     2.70070
O3159       O  0.85268447  0.48956545  0.84942966    -0.80050
O3160       O  0.90502926  0.01707500  0.81266160    -0.99140
Zr3161     Zr  0.90087650  0.09744897  0.84725294     2.21500
Zr3162     Zr  0.92734165  0.05927344  0.92751758     2.11130
O3163       O  0.88577042  0.03659812  0.90270219    -2.47820
O3164       O  0.87234481  0.05717229  0.86477173    -0.79850
O3165       O  0.90720837  0.08480979  0.93825360    -0.72040
O3166       O  0.92057597  0.07130021  0.83792092    -2.33000
O3167       O  0.89339642  0.10263330  0.89585080    -2.29210
O3168       O  0.93270160  0.05246526  0.87913213    -0.73800
H3169       H  0.97268713  0.10814806  0.92019117     0.78200
H3170       H  0.92292750  0.06902431  0.81831041     0.79280
H3171       H  0.87532505  0.01928096  0.90773647     0.81510
H3172       H  0.88478628  0.11272646  0.89864095     0.79120
H3173       H  0.96165967  0.05928470  0.81830895     0.42150
H3174       H  0.91659380  0.01087093  0.81936357     0.41120
H3175       H  0.84135119  0.99068327  0.86387428     0.40800
H3176       H  0.81940415  0.01337329  0.90766932     0.38730
H3177       H  0.86077024  0.08029726  0.96775740     0.41870
H3178       H  0.90121715  0.13964366  0.94807875     0.36650
H3179       H  0.98667684  0.16189953  0.91007740     0.42770
H3180       H  0.01131020  0.12433652  0.89143629     0.39180
H3181       H  0.81476829  0.03069178  0.93066062     0.44100
H3182       H  0.92939854  0.15875634  0.96068409     0.42820
H3183       H  0.51478611  0.12913175  0.86002913     0.42960
H3184       H  0.88912580  0.00121862  0.80497477     0.43320
O3185       O  0.50812009  0.41287100  0.63272940    -0.75550
O3186       O  0.52932536  0.43406813  0.67448833    -0.54460
C3187       C  0.51002194  0.42512962  0.65656189     0.78180
O3188       O  0.57068046  0.33860741  0.62487539    -0.60150
O3189       O  0.58834976  0.35154120  0.58315610    -0.53180
C3190       C  0.57923106  0.33498490  0.60151711     0.70190
O3191       O  0.54388494  0.37077036  0.69538146    -0.74710
O3192       O  0.55133807  0.41117167  0.70909505    -0.55280
C3193       C  0.54143509  0.38708224  0.71238266     0.76190
O3194       O  0.51981438  0.36676928  0.56430986    -0.59860
O3195       O  0.55487957  0.36493745  0.54730976    -0.52980
C3196       C  0.53001918  0.35732624  0.54698733     0.72780
Zr3197     Zr  0.53267670  0.39807364  0.60441598     2.54710
O3198       O  0.98933805  0.36363351  0.61230504    -0.80420
O3199       O  0.51739572  0.41524274  0.56949311    -0.93840
Zr3200     Zr  0.56572034  0.37139831  0.65250381     2.64680
O3201       O  0.52454978  0.33131547  0.65261165    -0.98790
O3202       O  0.58887115  0.35914081  0.68420976    -0.80860
O3203       O  0.54303171  0.39443306  0.65041558    -0.84210
O3204       O  0.55436348  0.37381916  0.60628689    -2.18920
O3205       O  0.61311716  0.46193079  0.55695975    -0.67600
O3206       O  0.60927217  0.42291697  0.54111874    -0.52170
C3207       C  0.61515466  0.44666364  0.53825199     0.71170
O3208       O  0.64244346  0.46262376  0.69281963    -0.60510
O3209       O  0.60625394  0.46441300  0.70612950    -0.52490
C3210       C  0.63050375  0.47108290  0.70900168     0.72970
O3211       O  0.65789516  0.42225237  0.61970418    -0.71910
O3212       O  0.63727128  0.40027430  0.57802861    -0.50580
C3213       C  0.65740381  0.41119303  0.59549516     0.74350
O3214       O  0.59476930  0.49514403  0.63380710    -0.67240
O3215       O  0.57640832  0.47958689  0.67428189    -0.54430
C3216       C  0.58584260  0.49733468  0.65770029     0.72730
Zr3217     Zr  0.59898866  0.46227571  0.60318651     2.77540
O3218       O  0.64161312  0.50083329  0.60432387    -0.97980
O3219       O  0.57778162  0.47910898  0.57493406    -0.78810
Zr3220     Zr  0.63216125  0.43491717  0.64926074     2.70070
O3221       O  0.67037905  0.47637559  0.64422146    -0.80050
O3222       O  0.65302532  0.41965739  0.68019228    -0.99140
Zr3223     Zr  0.57150835  0.43688669  0.67127997     2.21500
Zr3224     Zr  0.59289202  0.39496130  0.58072630     2.11130
O3225       O  0.62091321  0.43788759  0.60307823    -2.47820
O3226       O  0.61077926  0.45931183  0.64859509    -0.79850
O3227       O  0.57120792  0.41997896  0.58032283    -0.72040
O3228       O  0.59408474  0.41330596  0.67429575    -2.33000
O3229       O  0.55988454  0.44047627  0.62531478    -2.29210
O3230       O  0.60413224  0.39268613  0.62791055    -0.73800
H3231       H  0.54334437  0.35622772  0.59844521     0.78200
H3232       H  0.59842318  0.41271868  0.69341353     0.79280
H3233       H  0.63661364  0.44635919  0.59311949     0.81510
H3234       H  0.55117050  0.45050713  0.62516782     0.79120
H3235       H  0.58737434  0.36630719  0.70291908     0.42150
H3236       H  0.64759985  0.40185719  0.67213358     0.41120
H3237       H  0.66466134  0.48926743  0.64829400     0.40800
H3238       H  0.65293972  0.49501733  0.59494284     0.38730
H3239       H  0.56534813  0.46407106  0.56217131     0.41870
H3240       H  0.51861449  0.43111116  0.57913809     0.36650
H3241       H  0.99198301  0.35519566  0.62776599     0.42770
H3242       H  0.51731854  0.32705956  0.63316495     0.39180
H3243       H  0.63948507  0.01156437  0.59120364     0.44100
H3244       H  0.49848204  0.40297206  0.56691071     0.42820
H3245       H  0.52934221  0.31802195  0.65576444     0.42960
H3246       H  0.67177573  0.42968960  0.67677200     0.43320
O3247       O  0.64982602  0.11954161  0.82461117    -0.75550
O3248       O  0.68693866  0.11960219  0.81140794    -0.54460
C3249       C  0.66835047  0.12488264  0.80818018     0.78180
O3250       O  0.67213992  0.13095527  0.96133402    -0.60150
O3251       O  0.63592714  0.09247661  0.96713553    -0.53180
C3252       C  0.65154670  0.11684348  0.97374691     0.70190
O3253       O  0.73103117  0.15646460  0.89874767    -0.74710
O3254       O  0.73440096  0.14087801  0.85492973    -0.55280
C3255       C  0.74248607  0.15816517  0.87593097     0.76190
O3256       O  0.59150352  0.07746005  0.88668787    -0.59860
O3257       O  0.59149888  0.06039226  0.92705152    -0.52980
C3258       C  0.58037153  0.06593936  0.90812162     0.72780
Zr3259     Zr  0.63339871  0.09702665  0.86520221     2.54710
O3260       O  0.63136103  0.13613749  0.87848584    -0.80420
O3261       O  0.59751183  0.08170011  0.83055561    -0.93840
Zr3262     Zr  0.69276589  0.12603555  0.92028188     2.64680
O3263       O  0.69580219  0.16827188  0.92311962    -0.98790
O3264       O  0.72666859  0.13962632  0.95687499    -0.80860
O3265       O  0.67929497  0.12148776  0.87280995    -0.84210
O3266       O  0.64695618  0.10324537  0.91230948    -2.18920
O3267       O  0.59846207  0.00680324  0.87517343    -0.67600
O3268       O  0.59440526  0.02055736  0.91951042    -0.52170
C3269       C  0.58643270  0.00470807  0.89745925     0.71170
O3270       O  0.73112243  0.06908736  0.88267960    -0.60510
O3271       O  0.73451569  0.09238666  0.84610375    -0.52490
C3272       C  0.74228563  0.08054929  0.86122628     0.72970
O3273       O  0.67206022  0.03045930  0.94676585    -0.71910
O3274       O  0.63681602  0.03394301  0.95970902    -0.50580
C3275       C  0.65161233  0.02376006  0.96102782     0.74350
O3276       O  0.67187767  0.03299670  0.82798045    -0.67240
O3277       O  0.68868711  0.06814076  0.80547454    -0.54430
C3278       C  0.67873203  0.04355826  0.80548386     0.72730
Zr3279     Zr  0.63787002  0.03379485  0.85434098     2.77540
O3280       O  0.62661875  0.48879519  0.84438499    -0.97980
O3281       O  0.61182785  0.02425631  0.81127692    -0.78810
Zr3282     Zr  0.69485015  0.06125600  0.91193813     2.70070
O3283       O  0.70370191  0.02553265  0.90896035    -0.80050
O3284       O  0.72872200  0.08415748  0.94887311    -0.99140
Zr3285     Zr  0.69671188  0.09796883  0.84741777     2.21500
Zr3286     Zr  0.63296504  0.06190128  0.92791762     2.11130
O3287       O  0.64936161  0.03746315  0.90209637    -2.47820
O3288       O  0.68296963  0.05689861  0.86398400    -0.79850
O3289       O  0.62014519  0.05627417  0.87985819    -0.72040
O3290       O  0.70992989  0.10245290  0.89570313    -2.33000
O3291       O  0.65063479  0.07426294  0.83840209    -2.29210
O3292       O  0.67876128  0.08548391  0.93802211    -0.73800
H3293       H  0.63882688  0.11210620  0.92167175     0.78200
H3294       H  0.72866602  0.11190972  0.89822005     0.79280
H3295       H  0.64183453  0.02008296  0.90720392     0.81510
H3296       H  0.64600304  0.07243184  0.81883127     0.79120
H3297       H  0.74098839  0.13847458  0.94754981     0.42150
H3298       H  0.71936833  0.07994270  0.96628351     0.41120
H3299       H  0.69046131  0.01251374  0.89498094     0.40800
H3300       H  0.62611889  0.48256201  0.86281017     0.38730
H3301       H  0.59644169  0.02554948  0.81707982     0.41870
H3302       H  0.60325143  0.07570310  0.81368116     0.36650
H3303       H  0.64914188  0.15035535  0.87608546     0.42770
H3304       H  0.67769651  0.16477400  0.92484011     0.39180
H3305       H  0.60830308  0.47958035  0.83697751     0.44100
H3306       H  0.59746161  0.09743419  0.82580082     0.42820
H3307       H  0.70460551  0.17689261  0.94152026     0.42960
H3308       H  0.73860104  0.07475770  0.94833105     0.43320
O3309       O  0.53484121  0.17820810  0.70832397    -0.75550
O3310       O  0.54283834  0.14797480  0.72508869    -0.54460
C3311       C  0.53083600  0.16112652  0.72515594     0.78180
O3312       O  0.53061034  0.14659707  0.57668696    -0.60150
O3313       O  0.56714714  0.18173975  0.56426861    -0.53180
C3314       C  0.54343413  0.16323340  0.55989546     0.70190
O3315       O  0.50830942  0.10143026  0.64763903    -0.74710
O3316       O  0.52560854  0.10125444  0.68959536    -0.55280
C3317       C  0.50690998  0.09191607  0.67067372     0.76190
O3318       O  0.57117685  0.23355638  0.64164971    -0.59860
O3319       O  0.59214599  0.23202613  0.60245350    -0.52980
C3320       C  0.58150383  0.24210993  0.61849680     0.72780
Zr3321     Zr  0.56510774  0.19967624  0.67196203     2.54710
O3322       O  0.52865228  0.20782064  0.67232477    -0.80420
O3323       O  0.58799898  0.23556351  0.70783266    -0.93840
Zr3324     Zr  0.53624390  0.13567977  0.62134320     2.64680
O3325       O  0.99481912  0.13512911  0.62284149    -0.98790
O3326       O  0.51819878  0.09654812  0.58925477    -0.80860
O3327       O  0.54321483  0.15391433  0.66766002    -0.84210
O3328       O  0.55703711  0.18118233  0.62496038    -2.18920
O3329       O  0.65969584  0.23654825  0.64671367    -0.67600
O3330       O  0.64119689  0.23121118  0.60326040    -0.52170
C3331       C  0.65990081  0.24325615  0.62190185     0.71170
O3332       O  0.59927352  0.10469856  0.65247157    -0.60510
O3333       O  0.57568652  0.10207808  0.69044749    -0.52490
C3334       C  0.58840692  0.09431127  0.67427768     0.72970
O3335       O  0.62124012  0.14872748  0.58103165    -0.71910
O3336       O  0.61775382  0.18205679  0.56611051    -0.50580
C3337       C  0.62452526  0.16454779  0.56332979     0.74350
O3338       O  0.64051870  0.17969108  0.71201908    -0.67240
O3339       O  0.60227264  0.14738239  0.72598762    -0.54430
C3340       C  0.62733230  0.16123680  0.72729614     0.72730
Zr3341     Zr  0.63213184  0.20168968  0.67575951     2.77540
O3342       O  0.67750250  0.21268598  0.68167259    -0.97980
O3343       O  0.64092044  0.23621073  0.71206428    -0.78810
Zr3344     Zr  0.60327453  0.13773787  0.62501823     2.70070
O3345       O  0.64638435  0.14228595  0.62873411    -0.80050
O3346       O  0.58452150  0.09738241  0.59483751    -0.99140
Zr3347     Zr  0.56900207  0.13980691  0.69067468     2.21500
Zr3348     Zr  0.59799052  0.19473176  0.60455537     2.11130
O3349       O  0.62559620  0.18329406  0.62877294    -2.47820
O3350       O  0.61044939  0.15603054  0.67125236    -0.79850
O3351       O  0.60585258  0.21426866  0.65170010    -0.72040
O3352       O  0.56192131  0.12171129  0.64352330    -2.33000
O3353       O  0.59113178  0.18652883  0.69652716    -2.29210
O3354       O  0.57631881  0.14893714  0.60047033    -0.73800
H3355       H  0.54664620  0.18659814  0.61506134     0.78200
H3356       H  0.55314855  0.10309353  0.64206643     0.79280
H3357       H  0.64212611  0.18942543  0.62031696     0.81510
H3358       H  0.59347908  0.19273290  0.71603612     0.79120
H3359       H  0.52853668  0.08825400  0.59356286     0.42150
H3360       H  0.57710508  0.10064855  0.57827309     0.41120
H3361       H  0.65566832  0.15617873  0.64403422     0.40800
H3362       H  0.68281125  0.21051483  0.66266746     0.38730
H3363       H  0.64524299  0.25135954  0.70187406     0.41870
H3364       H  0.57813159  0.22954125  0.72467646     0.36650
H3365       H  0.51635046  0.19535692  0.65730550     0.42770
H3366       H  0.99923789  0.15320367  0.62136481     0.39180
H3367       H  0.68719234  0.23152191  0.68713907     0.44100
H3368       H  0.58421146  0.24900713  0.70241577     0.42820
H3369       H  0.98541317  0.12566639  0.60493343     0.42960
H3370       H  0.59969009  0.09613160  0.58810747     0.43320
O3371       O  0.82162286  0.46405968  0.68976626    -0.75550
O3372       O  0.85877563  0.46476332  0.70442803    -0.54460
C3373       C  0.84162346  0.47206568  0.70662064     0.78180
O3374       O  0.76627882  0.34031700  0.62769013    -0.60150
O3375       O  0.76208947  0.35087535  0.58421372    -0.53180
C3376       C  0.75363985  0.33635970  0.60447319     0.70190
O3377       O  0.82734910  0.37250506  0.69714361    -0.74710
O3378       O  0.86160708  0.41278038  0.70899730    -0.55280
C3379       C  0.84677350  0.38912562  0.71348641     0.76190
O3380       O  0.76606818  0.42229734  0.61553442    -0.59860
O3381       O  0.76291341  0.39773975  0.57532062    -0.52980
C3382       C  0.75446484  0.40974793  0.59207630     0.72780
Zr3383     Zr  0.80380843  0.43538454  0.64652959     2.54710
O3384       O  0.76747279  0.41889246  0.67685755    -0.80420
O3385       O  0.80115387  0.47385670  0.63962879    -0.93840
Zr3386     Zr  0.80635515  0.37154559  0.65289893     2.64680
O3387       O  0.77431969  0.36023883  0.68823212    -0.98790
O3388       O  0.80524527  0.33021405  0.65024146    -0.80860
O3389       O  0.81980783  0.41403122  0.67309562    -0.84210
O3390       O  0.78938323  0.39268414  0.62726165    -2.18920
O3391       O  0.84769388  0.45942645  0.55415732    -0.67600
O3392       O  0.81206899  0.42041378  0.53960611    -0.52170
C3393       C  0.82964665  0.44412497  0.53614780     0.71170
O3394       O  0.90610561  0.41478508  0.63139371    -0.60510
O3395       O  0.90576380  0.43556858  0.67322927    -0.52490
C3396       C  0.91654320  0.42743926  0.65511235     0.72970
O3397       O  0.84485197  0.36212462  0.56647998    -0.71910
O3398       O  0.80953154  0.36224292  0.54750562    -0.50580
C3399       C  0.82593857  0.35364582  0.54823198     0.74350
O3400       O  0.90112582  0.49224405  0.62892039    -0.67240
O3401       O  0.90281113  0.47966310  0.67169584    -0.54430
C3402       C  0.91139731  0.49612260  0.65369063     0.72730
Zr3403     Zr  0.86371257  0.45944390  0.59945851     2.77540
O3404       O  0.90112213  0.47326748  0.57068316    -0.97980
O3405       O  0.86049115  0.49821890  0.59720706    -0.78810
Zr3406     Zr  0.86511989  0.39556124  0.60452256     2.70070
O3407       O  0.89620797  0.40774899  0.56816576    -0.80050
O3408       O  0.87406210  0.36217680  0.61738259    -0.99140
Zr3409     Zr  0.86575383  0.43693665  0.66980754     2.21500
Zr3410     Zr  0.80195330  0.39289142  0.57973970     2.11130
O3411       O  0.84856809  0.41660337  0.57847537    -2.47820
O3412       O  0.88064569  0.43839821  0.62393527    -0.79850
O3413       O  0.81764200  0.43629296  0.60036991    -0.72040
O3414       O  0.85192412  0.39388689  0.65053832    -2.33000
O3415       O  0.84947782  0.45904993  0.64484999    -2.29210
O3416       O  0.81928369  0.37208018  0.60630626    -0.73800
H3417       H  0.77070296  0.38381719  0.62797072     0.78200
H3418       H  0.85996002  0.38611871  0.66056152     0.79280
H3419       H  0.85379920  0.41674753  0.55954624     0.81510
H3420       H  0.85610364  0.47663149  0.65282020     0.79120
H3421       H  0.82316637  0.33456191  0.65590839     0.42150
H3422       H  0.85672578  0.34671244  0.61792293     0.41120
H3423       H  0.90585147  0.42683975  0.57062484     0.40800
H3424       H  0.89467887  0.46104647  0.55360161     0.38730
H3425       H  0.84159934  0.49214063  0.59705290     0.41870
H3426       H  0.81867566  0.48847548  0.64542316     0.36650
H3427       H  0.77497017  0.41791259  0.69476125     0.42770
H3428       H  0.76546811  0.37021605  0.68501782     0.39180
H3429       H  0.90403482  0.48980793  0.56457618     0.44100
H3430       H  0.78980042  0.47467981  0.65421554     0.42820
H3431       H  0.76108978  0.34203038  0.68268971     0.42960
H3432       H  0.88204229  0.35834635  0.60100741     0.43320
C3433       C  0.96012221  0.06720599  0.65847719    -0.09420
C3434       C  0.98131141  0.06876012  0.67360826     0.06780
C3435       C  0.97778304  0.04679791  0.68580666    -0.03190
C3436       C  0.95444382  0.02330786  0.67994199    -0.07630
C3437       C  0.93457606  0.02143797  0.66201756     0.05890
C3438       C  0.93729850  0.04405769  0.65222694    -0.02660
Br3439     Br  0.91101699  0.04537481  0.63003025    -0.02350
H3440       H  0.96184259  0.08404398  0.64980338     0.09810
H3441       H  0.95230977  0.50624010  0.68841655     0.07820
Br3442     Br  0.50415031  0.04727281  0.70928169    -0.02780
C3443       C  0.68962728  0.29023815  0.63120465    -0.09420
C3444       C  0.68288823  0.26724493  0.61473138     0.06780
C3445       C  0.69753400  0.26803556  0.59138532    -0.03190
C3446       C  0.71974640  0.29132763  0.58626655    -0.07630
C3447       C  0.72685238  0.31417508  0.60345265     0.05890
C3448       C  0.71068773  0.31356986  0.62515381    -0.02660
Br3449     Br  0.71676937  0.34435192  0.64743528    -0.02350
H3450       H  0.67805274  0.29014724  0.64857532     0.09810
H3451       H  0.73212265  0.29129289  0.56982040     0.07820
Br3452     Br  0.68919365  0.23747126  0.56739469    -0.02780
C3453       C  0.63754563  0.12847152  0.74243871    -0.09420
C3454       C  0.64194934  0.15385996  0.74611843     0.06780
C3455       C  0.65977346  0.17107233  0.76760331    -0.03190
C3456       C  0.67120677  0.16215478  0.78620350    -0.07630
C3457       C  0.66574991  0.13634339  0.78328951     0.05890
C3458       C  0.64934989  0.11974634  0.76058081    -0.02660
Br3459     Br  0.64008828  0.08404201  0.75541382    -0.02350
H3460       H  0.62422247  0.11508124  0.72578140     0.09810
H3461       H  0.68290706  0.17491595  0.80414145     0.07820
Br3462     Br  0.66673772  0.20598072  0.77420140    -0.02780
C3463       C  0.62090244  0.15168265  0.51297466    -0.09420
C3464       C  0.63599123  0.16026725  0.53803893     0.06780
C3465       C  0.65748321  0.15626743  0.54074183    -0.03190
C3466       C  0.66179380  0.14140254  0.51989903    -0.07630
C3467       C  0.64521441  0.13072933  0.99598707     0.05890
C3468       C  0.62576959  0.13741686  0.99170661    -0.02660
Br3469     Br  0.60630647  0.12864008  0.95684921    -0.02350
H3470       H  0.60442219  0.15471937  0.51055467     0.09810
H3471       H  0.67798120  0.13793738  0.52247888     0.07820
Br3472     Br  0.68057384  0.16948527  0.57342420    -0.02780
C3473       C  0.61636155  0.48448969  0.98026682    -0.09420
C3474       C  0.64317027  0.00152099  0.97853892     0.06780
C3475       C  0.66065759  0.99622667  0.49294584    -0.03190
C3476       C  0.65116601  0.47545509  0.50967075    -0.07630
C3477       C  0.62429330  0.45897970  0.51196374     0.05890
C3478       C  0.60701569  0.46338802  0.49619065    -0.02660
Br3479     Br  0.57005906  0.44236798  0.49816632    -0.02350
H3480       H  0.60238277  0.48778177  0.96941744     0.09810
H3481       H  0.66487798  0.47343100  0.52267533     0.07820
Br3482     Br  0.69762282  0.01849246  0.49350066    -0.02780
C3483       C  0.65250720  0.48235508  0.75588372    -0.09420
C3484       C  0.64601026  0.49033614  0.73231124     0.06780
C3485       C  0.65460034  0.01670876  0.73123630    -0.03190
C3486       C  0.66738153  0.03439215  0.75455567    -0.07630
C3487       C  0.67206551  0.02619190  0.77921317     0.05890
C3488       C  0.66558649  0.49993723  0.77914879    -0.02660
Br3489     Br  0.67375648  0.48629340  0.80979941    -0.02350
H3490       H  0.64687896  0.46222201  0.75641960     0.09810
H3491       H  0.67248945  0.05434786  0.75376751     0.07820
Br3492     Br  0.64944094  0.02938145  0.69824976    -0.02780
C3493       C  0.56747970  0.04816835  0.68380977    -0.09420
C3494       C  0.58999092  0.07088681  0.67868726     0.06780
C3495       C  0.61204291  0.06920601  0.67036165    -0.03190
C3496       C  0.61006100  0.04517882  0.66329611    -0.07630
C3497       C  0.58709034  0.02229808  0.66678111     0.05890
C3498       C  0.56603733  0.02403007  0.67850694    -0.02660
Br3499     Br  0.53385501  0.49425176  0.68497446    -0.02350
H3500       H  0.55038314  0.04898543  0.69002983     0.09810
H3501       H  0.62666319  0.04441726  0.65496554     0.07820
Br3502     Br  0.64544038  0.09922127  0.66789793    -0.02780
C3503       C  0.60246665  0.30963259  0.59723880    -0.09420
C3504       C  0.57887073  0.30986827  0.59734320     0.06780
C3505       C  0.55590174  0.28674659  0.60150595    -0.03190
C3506       C  0.55705884  0.26488418  0.60796086    -0.07630
C3507       C  0.58085493  0.26510618  0.60959018     0.05890
C3508       C  0.60354591  0.28749285  0.60298363    -0.02660
Br3509     Br  0.63698297  0.28993983  0.60428073    -0.02350
H3510       H  0.62039103  0.32724525  0.59464488     0.09810
H3511       H  0.53927594  0.24768768  0.61199725     0.07820
Br3512     Br  0.52238708  0.28432490  0.59898944    -0.02780
C3513       C  0.68312894  0.39064113  0.57420347    -0.09420
C3514       C  0.68248638  0.41198070  0.58835885     0.06780
C3515       C  0.70653376  0.43349313  0.59866285    -0.03190
C3516       C  0.72955426  0.43268552  0.59667150    -0.07630
C3517       C  0.73009121  0.41058329  0.58541509     0.05890
C3518       C  0.70669379  0.38979366  0.57268203    -0.02660
Br3519     Br  0.70548806  0.35942661  0.55462487    -0.02350
H3520       H  0.66513852  0.37400708  0.56576876     0.09810
H3521       H  0.74731181  0.44937345  0.60559712     0.07820
Br3522     Br  0.71031228  0.46493632  0.61713950    -0.02780
C3523       C  0.94857645  0.42182725  0.68231365    -0.09420
C3524       C  0.94311342  0.43313740  0.66090068     0.06780
C3525       C  0.96181668  0.44551474  0.64150697    -0.03190
C3526       C  0.98454198  0.44417924  0.64196212    -0.07630
C3527       C  0.98909980  0.43089979  0.66174416     0.05890
C3528       C  0.97162953  0.42063703  0.68283892    -0.02660
Br3529     Br  0.97684722  0.40214810  0.71027752    -0.02350
H3530       H  0.93407495  0.41213271  0.69716447     0.09810
H3531       H  0.99818782  0.45244668  0.62590824     0.07820
Br3532     Br  0.95629050  0.46280072  0.61269859    -0.02780
C3533       C  0.53229241  0.14552361  0.51110224    -0.09420
C3534       C  0.52849085  0.15905970  0.53401221     0.06780
C3535       C  0.00465033  0.15892175  0.53570437    -0.03190
C3536       C  0.98425709  0.14346966  0.51610771    -0.07630
C3537       C  0.98728942  0.12812941  0.99448474     0.05890
C3538       C  0.51202572  0.13049048  0.99111360    -0.02660
Br3539     Br  0.51956284  0.11485621  0.95893587    -0.02350
H3540       H  0.55047835  0.14532726  0.50966862     0.09810
H3541       H  0.96587234  0.14320684  0.51790984     0.07820
Br3542     Br  0.99864633  0.17809158  0.56590217    -0.02780
C3543       C  0.96550963  0.13029756  0.75925259    -0.09420
C3544       C  0.97309304  0.14036483  0.78716081     0.06780
C3545       C  0.99918632  0.16002938  0.79355798    -0.03190
C3546       C  0.51758914  0.16723235  0.77305044    -0.07630
C3547       C  0.51043385  0.15568775  0.74564267     0.05890
C3548       C  0.98388167  0.13806975  0.73855753    -0.02660
Br3549     Br  0.97213586  0.12308592  0.70110243    -0.02350
H3550       H  0.94574161  0.11506405  0.75382152     0.09810
H3551       H  0.53771806  0.18135769  0.77873357     0.07820
Br3552     Br  0.51089003  0.17673064  0.83063073    -0.02780
C3553       C  0.86228256  0.47977886  0.97532772    -0.09420
C3554       C  0.85607062  0.99976017  0.97746268     0.06780
C3555       C  0.83564501  0.99668693  0.49469674    -0.03190
C3556       C  0.82385299  0.47559942  0.51090853    -0.07630
C3557       C  0.83142430  0.45658754  0.51013871     0.05890
C3558       C  0.85038618  0.45860416  0.49130892    -0.02660
Br3559     Br  0.86257384  0.43418556  0.48908911    -0.02350
H3560       H  0.87717397  0.48089699  0.96160260     0.09810
H3561       H  0.81031154  0.47532981  0.52609348     0.07820
Br3562     Br  0.82546261  0.02257125  0.49975624    -0.02780
C3563       C  0.82910252  0.48411985  0.75212245    -0.09420
C3564       C  0.84543860  0.49148770  0.72989205     0.06780
C3565       C  0.86525628  0.01738385  0.73025261    -0.03190
C3566       C  0.86982802  0.03498915  0.75355695    -0.07630
C3567       C  0.85475962  0.02724884  0.77687720     0.05890
C3568       C  0.83344621  0.00164781  0.77543214    -0.02660
Br3569     Br  0.80931327  0.98904713  0.80433549    -0.02350
H3570       H  0.81325189  0.46444489  0.75164766     0.09810
H3571       H  0.88611617  0.05441867  0.75395587     0.07820
Br3572     Br  0.88653023  0.02965691  0.69935753    -0.02780
C3573       C  0.53758769  0.05014219  0.88463859    -0.09420
C3574       C  0.55257038  0.05801946  0.90978250     0.06780
C3575       C  0.54081268  0.05943898  0.93479181    -0.03190
C3576       C  0.51618083  0.05743808  0.93353511    -0.07630
C3577       C  0.50315176  0.05368669  0.90775052     0.05890
C3578       C  0.51288421  0.04741549  0.88354832    -0.02660
Br3579     Br  0.49339405  0.03511102  0.84840691    -0.02350
H3580       H  0.54548115  0.04687074  0.86548213     0.09810
H3581       H  0.50809712  0.06060068  0.95255792     0.07820
Br3582     Br  0.55770018  0.06581289  0.97087957    -0.02780
C3583       C  0.78967705  0.10453709  0.85585523    -0.09420
C3584       C  0.76652727  0.08079003  0.85456818     0.06780
C3585       C  0.76752362  0.05771950  0.85154151    -0.03190
C3586       C  0.79150787  0.05863068  0.85180037    -0.07630
C3587       C  0.81466483  0.08232853  0.85515582     0.05890
C3588       C  0.81376716  0.10546311  0.85645900    -0.02660
Br3589     Br  0.84455381  0.13855992  0.86306974    -0.02350
H3590       H  0.78905530  0.12237838  0.85860780     0.09810
H3591       H  0.79209622  0.04076472  0.85077708     0.07820
Br3592     Br  0.73672218  0.02453643  0.84819194    -0.02780
C3593       C  0.96463611  0.31172964  0.50858046    -0.09420
C3594       C  0.97183665  0.31290124  0.98104030     0.06780
C3595       C  0.49852029  0.32138604  0.97641368    -0.03190
C3596       C  0.51774664  0.33423311  0.99823264    -0.07630
C3597       C  0.51072687  0.33690204  0.52543318     0.05890
C3598       C  0.98374383  0.32254535  0.53064902    -0.02660
Br3599     Br  0.97156483  0.31671834  0.56744515    -0.02350
H3600       H  0.94436188  0.30421205  0.51300054     0.09810
H3601       H  0.53808720  0.34344734  0.99355763     0.07820
Br3602     Br  0.50981326  0.31806789  0.93985180    -0.02780
C3603       C  0.99386405  0.34415483  0.76376574    -0.09420
C3604       C  0.98960372  0.36222674  0.78001392     0.06780
C3605       C  0.00430101  0.38850299  0.77525126    -0.03190
C3606       C  0.52173747  0.39584813  0.75415896    -0.07630
C3607       C  0.52512171  0.37775361  0.73680726     0.05890
C3608       C  0.51128678  0.35151819  0.74234926    -0.02660
Br3609     Br  0.51455092  0.32428134  0.72203454    -0.02350
H3610       H  0.98315187  0.32397484  0.76733510     0.09810
H3611       H  0.53228561  0.41612423  0.75100298     0.07820
Br3612     Br  0.00260931  0.41617636  0.79659482    -0.02780
C3613       C  0.90186499  0.43649156  0.87100626    -0.09420
C3614       C  0.92485529  0.43841959  0.88111207     0.06780
C3615       C  0.94185248  0.45912233  0.90031372    -0.03190
C3616       C  0.93655246  0.47898216  0.90729967    -0.07630
C3617       C  0.91340423  0.47700928  0.89701997     0.05890
C3618       C  0.89529850  0.45482512  0.88016294    -0.02660
Br3619     Br  0.86041293  0.44710789  0.87124337    -0.02350
H3620       H  0.88768726  0.41925538  0.85830113     0.09810
H3621       H  0.95050496  0.99591925  0.92047907     0.07820
Br3622     Br  0.97099020  0.45998681  0.91905256    -0.02780
C3623       C  0.91168506  0.19180176  0.90356977    -0.09420
C3624       C  0.91385855  0.18082328  0.87744948     0.06780
C3625       C  0.91380411  0.19244749  0.85343722    -0.03190
C3626       C  0.91220394  0.21495652  0.85607155    -0.07630
C3627       C  0.91116657  0.22656434  0.88234826     0.05890
C3628       C  0.91061430  0.21454656  0.90630528    -0.02660
Br3629     Br  0.91025116  0.22859556  0.94353403    -0.02350
H3630       H  0.91122650  0.18284014  0.92225803     0.09810
H3631       H  0.91245239  0.22379662  0.83735413     0.07820
Br3632     Br  0.91785895  0.17997045  0.81685134    -0.02780
C3633       C  0.54018708  0.43569001  0.88895620    -0.09420
C3634       C  0.51859566  0.43536251  0.87633755     0.06780
C3635       C  0.51948768  0.45870227  0.87181009    -0.03190
C3636       C  0.54103816  0.48181452  0.88235038    -0.07630
C3637       C  0.56180146  0.48174157  0.89627461     0.05890
C3638       C  0.56166654  0.45862838  0.89889648    -0.02660
Br3639     Br  0.59125726  0.45748707  0.91352436    -0.02350
H3640       H  0.54011700  0.41786739  0.89168199     0.09810
H3641       H  0.54235391  0.99992149  0.87821503     0.07820
Br3642     Br  0.99294702  0.46062987  0.85084397    -0.02780
C3643       C  0.79017714  0.18137262  0.88088299    -0.09420
C3644       C  0.76719219  0.18176502  0.87495380     0.06780
C3645       C  0.76780082  0.20535373  0.87360449    -0.03250
C3646       C  0.79142029  0.22826689  0.87777630    -0.07630
C3647       C  0.81456620  0.22808517  0.88390633     0.05890
C3648       C  0.81385627  0.20436799  0.88546246    -0.02660
Br3649     Br  0.84441747  0.20205381  0.89269858    -0.02350
H3650       H  0.78955761  0.16317523  0.88276573     0.09810
H3651       H  0.79172588  0.24637506  0.87628759     0.07820
Br3652     Br  0.73677205  0.20707036  0.86644071    -0.02780
C3653       C  0.84732529  0.31026375  0.50822924    -0.09420
C3654       C  0.84267202  0.31346322  0.98088281     0.06780
C3655       C  0.82469844  0.32227006  0.97631991    -0.03190
C3656       C  0.81703215  0.33334802  0.49859081    -0.07630
C3657       C  0.82529421  0.33403399  0.52598003     0.05890
C3658       C  0.83780128  0.31939912  0.53055892    -0.02660
Br3659     Br  0.84228839  0.31098602  0.56676947    -0.02350
H3660       H  0.85982544  0.30235433  0.51245346     0.09810
H3661       H  0.80610382  0.34289837  0.49423500     0.07820
Br3662     Br  0.81155441  0.32129553  0.93962841    -0.02780
C3663       C  0.84822761  0.35392198  0.73587596    -0.09420
C3664       C  0.85374734  0.37974849  0.73785227     0.06780
C3665       C  0.86799886  0.39631020  0.76178044    -0.03190
C3666       C  0.87725688  0.38719653  0.78224595    -0.07630
C3667       C  0.87230915  0.36162030  0.77979200     0.05890
C3668       C  0.85733351  0.34481198  0.75648573    -0.02660
Br3669     Br  0.85066150  0.30993728  0.75038401    -0.02350
H3670       H  0.83768044  0.34091766  0.71759871     0.09810
H3671       H  0.88826009  0.40016901  0.80038688     0.07820
Br3672     Br  0.87473108  0.43122467  0.76855475    -0.02780
O3673       O  0.86786849  0.83180822  0.31168088    -0.75550
O3674       O  0.90688869  0.86863177  0.31034633    -0.54460
C3675       C  0.88306971  0.85330599  0.30182564     0.78180
O3676       O  0.86903915  0.83681670  0.44729187    -0.60150
O3677       O  0.87051314  0.80027911  0.45387910    -0.53180
C3678       C  0.86178898  0.81636858  0.45927988     0.70190
O3679       O  0.91378517  0.90172004  0.40049332    -0.74710
O3680       O  0.93193588  0.90672414  0.35817753    -0.55280
C3681       C  0.92437292  0.91443027  0.37990924     0.76190
O3682       O  0.84099254  0.76638852  0.36518399    -0.59860
O3683       O  0.85616629  0.75900399  0.40510391    -0.52980
C3684       C  0.83901265  0.75268084  0.38500793     0.72780
Zr3685     Zr  0.87043217  0.80696606  0.34807994     2.54710
O3686       O  0.82776743  0.80369321  0.34957512    -0.80420
O3687       O  0.85735621  0.77517851  0.30764568    -0.93840
Zr3688     Zr  0.89786915  0.85914582  0.41281918     2.64680
O3689       O  0.86150604  0.86602719  0.40308479    -0.98790
O3690       O  0.91080107  0.88698844  0.45640435    -0.80860
O3691       O  0.89210149  0.85129458  0.36389372    -0.84210
O3692       O  0.87455577  0.81479604  0.39737390    -2.18920
O3693       O  0.92386554  0.76524608  0.36358342    -0.67600
O3694       O  0.90277039  0.75883986  0.40411504    -0.52170
C3695       C  0.91257459  0.75184053  0.38367532     0.71170
O3696       O  0.99252710  0.89682694  0.39361263    -0.60510
O3697       O  0.97701360  0.90536000  0.35519290    -0.52490
C3698       C  0.99450982  0.91090263  0.37432126     0.72970
O3699       O  0.96903428  0.83519130  0.44627545    -0.71910
O3700       O  0.93058121  0.79985644  0.45403700    -0.50580
C3701       C  0.95557609  0.81535529  0.45896407     0.74350
O3702       O  0.96523408  0.83260562  0.31265672    -0.67240
O3703       O  0.95962533  0.86715254  0.30859403    -0.54430
C3704       C  0.97021874  0.85339017  0.30175472     0.72730
Zr3705     Zr  0.93603997  0.80621593  0.34703129     2.77540
O3706       O  0.97458395  0.80134999  0.34679314    -0.97980
O3707       O  0.91674650  0.77670958  0.30498430    -0.78810
Zr3708     Zr  0.96300259  0.85769515  0.41182774     2.70070
O3709       O  0.00636093  0.86280283  0.40995604    -0.80050
O3710       O  0.97570837  0.88863002  0.45298805    -0.99140
Zr3711     Zr  0.93447560  0.86823731  0.34714833     2.21500
Zr3712     Zr  0.89885202  0.79686834  0.41647328     2.11130
O3713       O  0.94050725  0.81343926  0.39641249    -2.47820
O3714       O  0.95947729  0.85027684  0.36294609    -0.79850
O3715       O  0.89471523  0.78939207  0.36633476    -0.72040
O3716       O  0.93990098  0.87682706  0.39640990    -2.33000
O3717       O  0.91186944  0.82405242  0.32922512    -2.29210
O3718       O  0.92204673  0.84164753  0.43193573    -0.73800
H3719       H  0.85713472  0.80699051  0.40384565     0.78200
H3720       H  0.95006103  0.89496051  0.40267591     0.79280
H3721       H  0.94975826  0.80514992  0.40273392     0.81510
H3722       H  0.91069628  0.82208419  0.30913116     0.79120
H3723       H  0.93000757  0.89720383  0.45639559     0.42150
H3724       H  0.96534424  0.87841910  0.46791314     0.41120
H3725       H  0.50633616  0.85415471  0.39152635     0.40800
H3726       H  0.97716367  0.79834023  0.36608716     0.38730
H3727       H  0.90007928  0.76267918  0.31070083     0.41870
H3728       H  0.86901329  0.78443123  0.29299329     0.36650
H3729       H  0.83131466  0.82172258  0.35043044     0.42770
H3730       H  0.84699849  0.84871000  0.39643640     0.39180
H3731       H  0.96904227  0.78461541  0.33570169     0.44100
H3732       H  0.84007417  0.77226525  0.30137189     0.42820
H3733       H  0.85666916  0.87035961  0.42154270     0.42960
H3734       H  0.99377854  0.89300840  0.45797994     0.43320
O3735       O  0.92691333  0.65545697  0.39887718    -0.75550
O3736       O  0.90659351  0.64041976  0.35570568    -0.54460
C3737       C  0.91625695  0.65752398  0.37682426     0.78180
O3738       O  0.98283342  0.57210436  0.38414083    -0.60150
O3739       O  0.96633194  0.55564027  0.42485182    -0.53180
C3740       C  0.98250577  0.56055647  0.40550150     0.70190
O3741       O  0.96908289  0.61803596  0.32536180    -0.74710
O3742       O  0.93326904  0.62050345  0.31252233    -0.55280
C3743       C  0.95713126  0.62556995  0.30979330     0.76190
O3744       O  0.96045291  0.62893549  0.46022668    -0.59860
O3745       O  0.95649491  0.58973284  0.46636929    -0.52980
C3746       C  0.96633053  0.61435088  0.47270879     0.72780
Zr3747     Zr  0.93456737  0.62459796  0.41970404     2.54710
O3748       O  0.97506848  0.66552307  0.42205528    -0.80420
O3749       O  0.91660066  0.64014389  0.45692824    -0.93840
Zr3750     Zr  0.96108449  0.59263755  0.36373734     2.64680
O3751       O  0.00430852  0.62930333  0.37593848    -0.98790
O3752       O  0.97691352  0.57594139  0.32541778    -0.80860
O3753       O  0.94216998  0.61931126  0.37203980    -0.84210
O3754       O  0.95552084  0.59988213  0.41113857    -2.18920
O3755       O  0.85741917  0.53035871  0.44723238    -0.67600
O3756       O  0.89537085  0.53160707  0.45935390    -0.52170
C3757       C  0.87054139  0.52235994  0.46079459     0.71170
O3758       O  0.85927303  0.53283581  0.32585945    -0.60510
O3759       O  0.87975962  0.56856151  0.30448205    -0.52490
C3760       C  0.86452547  0.54400830  0.30368069     0.72970
O3761       O  0.90125583  0.50259797  0.37612723    -0.71910
O3762       O  0.92082455  0.51646191  0.41974887    -0.50580
C3763       C  0.91116800  0.49994619  0.39829126     0.74350
O3764       O  0.83852183  0.57111419  0.38372630    -0.67240
O3765       O  0.85791139  0.59297061  0.34617544    -0.54430
C3766       C  0.83871020  0.58219823  0.36194640     0.72730
Zr3767     Zr  0.86620108  0.56220386  0.41309868     2.77540
O3768       O  0.82008152  0.53023196  0.41131245    -0.97980
O3769       O  0.85897215  0.58739486  0.45070016    -0.78810
Zr3770     Zr  0.89165301  0.53164044  0.35489415     2.70070
O3771       O  0.85266591  0.98955192  0.34944129    -0.80050
O3772       O  0.90502324  0.51707197  0.31269049    -0.99140
Zr3773     Zr  0.90086322  0.59743512  0.34727475     2.21500
Zr3774     Zr  0.92730586  0.55924434  0.42755560     2.11130
O3775       O  0.88574205  0.53657363  0.40272656    -2.47820
O3776       O  0.87232762  0.55716002  0.36480023    -0.79850
O3777       O  0.90717792  0.58478729  0.43828655    -0.72040
O3778       O  0.92055860  0.57128449  0.33794312    -2.33000
O3779       O  0.89337136  0.60260557  0.39587354    -2.29210
O3780       O  0.93267531  0.55245304  0.37916697    -0.73800
H3781       H  0.97265274  0.60811568  0.42021619     0.78200
H3782       H  0.92291180  0.56900883  0.31833314     0.79280
H3783       H  0.87529633  0.51925299  0.40775042     0.81510
H3784       H  0.88476486  0.61270228  0.39866217     0.79120
H3785       H  0.96163354  0.55927196  0.31832827     0.42150
H3786       H  0.91658630  0.51086720  0.31939512     0.41120
H3787       H  0.84132912  0.49066614  0.36388357     0.40800
H3788       H  0.81935921  0.51335160  0.40767561     0.38730
H3789       H  0.86063382  0.58018877  0.46778395     0.41870
H3790       H  0.90120570  0.63964204  0.44809875     0.36650
H3791       H  0.98664796  0.66186980  0.41007926     0.42770
H3792       H  0.01128667  0.62432497  0.39146517     0.39180
H3793       H  0.81471232  0.53068063  0.43064330     0.44100
H3794       H  0.92939127  0.65875571  0.46069250     0.42820
H3795       H  0.51476421  0.62911898  0.36005775     0.42960
H3796       H  0.88912203  0.50121648  0.30499740     0.43320
O3797       O  0.50811900  0.91287082  0.13272947    -0.75550
O3798       O  0.52932393  0.93406847  0.17448837    -0.54460
C3799       C  0.51002051  0.92512960  0.15656175     0.78180
O3800       O  0.57068033  0.83860762  0.12487569    -0.60150
O3801       O  0.58834910  0.85154149  0.08315625    -0.53180
C3802       C  0.57923087  0.83498520  0.10151734     0.70190
O3803       O  0.54388461  0.87077033  0.19538172    -0.74710
O3804       O  0.55133736  0.91117155  0.20909525    -0.55280
C3805       C  0.54143471  0.88708217  0.21238288     0.76190
O3806       O  0.51981366  0.86676925  0.06430989    -0.59860
O3807       O  0.55487880  0.86493744  0.04730977    -0.52980
C3808       C  0.53001849  0.85732622  0.04698735     0.72780
Zr3809     Zr  0.53267567  0.89807357  0.10441618     2.54710
O3810       O  0.98933713  0.86363332  0.11230519    -0.80420
O3811       O  0.51739504  0.91524269  0.06949305    -0.93840
Zr3812     Zr  0.56571951  0.87139820  0.15250400     2.64680
O3813       O  0.52454927  0.83131509  0.15261188    -0.98790
O3814       O  0.58887092  0.85914099  0.18420955    -0.80860
O3815       O  0.54303090  0.89443305  0.15041573    -0.84210
O3816       O  0.55436205  0.87381880  0.10628723    -2.18920
O3817       O  0.61311702  0.96193098  0.05696008    -0.67600
O3818       O  0.60927111  0.92291680  0.04111903    -0.52170
C3819       C  0.61515426  0.94666365  0.03825233     0.71170
O3820       O  0.64244263  0.96262354  0.19282032    -0.60510
O3821       O  0.60625324  0.96441319  0.20612968    -0.52490
C3822       C  0.63050302  0.97108291  0.20900210     0.72970
O3823       O  0.65789164  0.92225203  0.11970456    -0.71910
O3824       O  0.63726837  0.90027475  0.07802845    -0.50580
C3825       C  0.65740027  0.91119337  0.09549537     0.74350
O3826       O  0.59476895  0.99514431  0.13380727    -0.67240
O3827       O  0.57640789  0.97958725  0.17428209    -0.54430
C3828       C  0.58584235  0.99733503  0.15770048     0.72730
Zr3829     Zr  0.59898778  0.96227581  0.10318661     2.77540
O3830       O  0.64161261  0.00083301  0.10432395    -0.97980
O3831       O  0.57778122  0.97910930  0.07493390    -0.78810
Zr3832     Zr  0.63215948  0.93491727  0.14926152     2.70070
O3833       O  0.67037699  0.97637600  0.14422274    -0.80050
O3834       O  0.65302468  0.91965779  0.18019205    -0.99140
Zr3835     Zr  0.57150712  0.93688678  0.17128029     2.21500
Zr3836     Zr  0.59289022  0.89496129  0.08072667     2.11130
O3837       O  0.62091187  0.93788747  0.10307873    -2.47820
O3838       O  0.61077793  0.95931208  0.14859547    -0.79850
O3839       O  0.57120663  0.91997917  0.08032286    -0.72040
O3840       O  0.59408328  0.91330587  0.17429638    -2.33000
O3841       O  0.55988361  0.94047625  0.12531492    -2.29210
O3842       O  0.60413111  0.89268630  0.12791077    -0.73800
H3843       H  0.54334299  0.85622736  0.09844551     0.78200
H3844       H  0.59842176  0.91271861  0.19341415     0.79280
H3845       H  0.63661235  0.94635903  0.09312007     0.81510
H3846       H  0.55116957  0.95050711  0.12516791     0.79120
H3847       H  0.58737417  0.86630728  0.20291896     0.42150
H3848       H  0.64759918  0.90185760  0.17213329     0.41120
H3849       H  0.66465907  0.98926770  0.14829509     0.40800
H3850       H  0.65293908  0.99501683  0.09494304     0.38730
H3851       H  0.56534784  0.96407145  0.06217100     0.41870
H3852       H  0.51861394  0.93111121  0.07913791     0.36650
H3853       H  0.99198221  0.85519526  0.12776586     0.42770
H3854       H  0.51731797  0.82705915  0.13316521     0.39180
H3855       H  0.63948482  0.51156420  0.09120366     0.44100
H3856       H  0.49848134  0.90297212  0.06691062     0.42820
H3857       H  0.52934195  0.81802173  0.15576456     0.42960
H3858       H  0.67177496  0.92969010  0.17677124     0.43320
O3859       O  0.64982511  0.61954101  0.32461135    -0.75550
O3860       O  0.68693812  0.61960219  0.31140823    -0.54460
C3861       C  0.66834978  0.62488240  0.30818046     0.78180
O3862       O  0.67213956  0.63095499  0.46133407    -0.60150
O3863       O  0.63592626  0.59247663  0.46713557    -0.53180
C3864       C  0.65154630  0.61684340  0.47374700     0.70190
O3865       O  0.73103058  0.65646439  0.39874765    -0.74710
O3866       O  0.73440060  0.64087780  0.35492985    -0.55280
C3867       C  0.74248570  0.65816497  0.37593107     0.76190
O3868       O  0.59149938  0.57746130  0.38668811    -0.59860
O3869       O  0.59149540  0.56039262  0.42705092    -0.52980
C3870       C  0.58036741  0.56594111  0.40812252     0.72780
Zr3871     Zr  0.63339645  0.59702573  0.36520240     2.54710
O3872       O  0.63136067  0.63613757  0.37848597    -0.80420
O3873       O  0.59751063  0.58169925  0.33055461    -0.93840
Zr3874     Zr  0.69276492  0.62603523  0.42028159     2.64680
O3875       O  0.69580187  0.66827180  0.42311939    -0.98790
O3876       O  0.72666774  0.63962573  0.45687461    -0.80860
O3877       O  0.67929320  0.62148687  0.37280988    -0.84210
O3878       O  0.64695491  0.60324513  0.41230942    -2.18920
O3879       O  0.59846171  0.50680284  0.37517366    -0.67600
O3880       O  0.59440382  0.52055680  0.41951033    -0.52170
C3881       C  0.58643193  0.50470750  0.39745922     0.71170
O3882       O  0.73112042  0.56908699  0.38267948    -0.60510
O3883       O  0.73451481  0.59238647  0.34610348    -0.52490
C3884       C  0.74228387  0.58054859  0.36122621     0.72970
O3885       O  0.67205976  0.53045952  0.44676603    -0.71910
O3886       O  0.63681513  0.53394281  0.45970866    -0.50580
C3887       C  0.65161179  0.52376018  0.46102779     0.74350
O3888       O  0.67187729  0.53299664  0.32798061    -0.67240
O3889       O  0.68868687  0.56814074  0.30547473    -0.54430
C3890       C  0.67873183  0.54355824  0.30548404     0.72730
Zr3891     Zr  0.63786947  0.53379478  0.35434111     2.77540
O3892       O  0.62661865  0.98879525  0.34438512    -0.97980
O3893       O  0.61182772  0.52425622  0.31127676    -0.78810
Zr3894     Zr  0.69484907  0.56125606  0.41193844     2.70070
O3895       O  0.70370134  0.52553297  0.40896059    -0.80050
O3896       O  0.72872150  0.58415751  0.44887294    -0.99140
Zr3897     Zr  0.69671115  0.59796875  0.34741790     2.21500
Zr3898     Zr  0.63296278  0.56190094  0.42791749     2.11130
O3899       O  0.64936052  0.53746338  0.40209665    -2.47820
O3900       O  0.68296904  0.55689854  0.36398418    -0.79850
O3901       O  0.62014328  0.55627327  0.37985796    -0.72040
O3902       O  0.70992937  0.60245292  0.39570324    -2.33000
O3903       O  0.65063390  0.57426284  0.33840250    -2.29210
O3904       O  0.67875941  0.58548349  0.43802185    -0.73800
H3905       H  0.63882592  0.61210621  0.42167179     0.78200
H3906       H  0.72866551  0.61190972  0.39822026     0.79280
H3907       H  0.64183358  0.52008319  0.40720417     0.81510
H3908       H  0.64600224  0.57243167  0.31883165     0.79120
H3909       H  0.74098769  0.63847440  0.44754928     0.42150
H3910       H  0.71936809  0.57994280  0.46628350     0.41120
H3911       H  0.69046089  0.51251402  0.39498110     0.40800
H3912       H  0.62611887  0.98256208  0.36281029     0.38730
H3913       H  0.59644148  0.52554934  0.31707945     0.41870
H3914       H  0.60325087  0.57570255  0.31368045     0.36650
H3915       H  0.64914175  0.65035493  0.37608538     0.42770
H3916       H  0.67769630  0.66477416  0.42484014     0.39180
H3917       H  0.60830298  0.97958026  0.33697762     0.44100
H3918       H  0.59746049  0.59743335  0.32579975     0.42820
H3919       H  0.70460542  0.67689250  0.44151996     0.42960
H3920       H  0.73860048  0.57475765  0.44833061     0.43320
O3921       O  0.53483829  0.67820726  0.20832889    -0.75550
O3922       O  0.54283504  0.64797276  0.22509061    -0.54460
C3923       C  0.53083199  0.66112421  0.22516024     0.78180
O3924       O  0.53061008  0.64659774  0.07668820    -0.60150
O3925       O  0.56714741  0.68174017  0.06426996    -0.53180
C3926       C  0.54343417  0.66323397  0.05989683     0.70190
O3927       O  0.50831301  0.60143180  0.14764064    -0.74710
O3928       O  0.52561180  0.60125690  0.18959761    -0.55280
C3929       C  0.50691386  0.59191843  0.17067585     0.76190
O3930       O  0.57117655  0.73355623  0.14165054    -0.59860
O3931       O  0.59214663  0.73202737  0.10245437    -0.52980
C3932       C  0.58150384  0.74211037  0.11849775     0.72780
Zr3933     Zr  0.56510665  0.69967610  0.17196429     2.54710
O3934       O  0.52865128  0.70782054  0.17232503    -0.80420
O3935       O  0.58799860  0.73556374  0.20783419    -0.93840
Zr3936     Zr  0.53624529  0.63568116  0.12134395     2.64680
O3937       O  0.99482004  0.63512967  0.12284191    -0.98790
O3938       O  0.51819989  0.59654938  0.08925548    -0.80860
O3939       O  0.54321433  0.65391451  0.16766138    -0.84210
O3940       O  0.55703884  0.68118369  0.12496169    -2.18920
O3941       O  0.65970147  0.73655391  0.14671292    -0.67600
O3942       O  0.64120137  0.73121590  0.10326021    -0.52170
C3943       C  0.65990680  0.74326216  0.12190059     0.71170
O3944       O  0.59927388  0.60469950  0.15247176    -0.60510
O3945       O  0.57568702  0.60207931  0.19044775    -0.52490
C3946       C  0.58840713  0.59431215  0.17427779     0.72970
O3947       O  0.62124009  0.64872791  0.08103168    -0.71910
O3948       O  0.61775489  0.68205789  0.06611066    -0.50580
C3949       C  0.62452551  0.66454826  0.06332977     0.74350
O3950       O  0.64051923  0.67969203  0.21201831    -0.67240
O3951       O  0.60227347  0.64738393  0.22598841    -0.54430
C3952       C  0.62733309  0.66123787  0.22729586     0.72730
Zr3953     Zr  0.63213394  0.70169266  0.17575880     2.77540
O3954       O  0.67750380  0.71268673  0.18167236    -0.97980
O3955       O  0.64092165  0.73621268  0.21206436    -0.78810
Zr3956     Zr  0.60327548  0.63773941  0.12501885     2.70070
O3957       O  0.64638480  0.64228639  0.12873463    -0.80050
O3958       O  0.58452168  0.59738366  0.09483829    -0.99140
Zr3959     Zr  0.56900315  0.63980898  0.19067616     2.21500
Zr3960     Zr  0.59799283  0.69473437  0.10455592     2.11130
O3961       O  0.62559804  0.68329598  0.12877280    -2.47820
O3962       O  0.61045032  0.65603309  0.17125264    -0.79850
O3963       O  0.60585219  0.71426972  0.15170118    -0.72040
O3964       O  0.56192258  0.62171294  0.14352456    -2.33000
O3965       O  0.59113337  0.68653079  0.19652777    -2.29210
O3966       O  0.57632038  0.64893937  0.10047100    -0.73800
H3967       H  0.54664771  0.68659921  0.11506259     0.78200
H3968       H  0.55314994  0.60309516  0.14206760     0.79280
H3969       H  0.64212789  0.68942734  0.12031670     0.81510
H3970       H  0.59348092  0.69273487  0.21603672     0.79120
H3971       H  0.52853732  0.58825487  0.09356394     0.42150
H3972       H  0.57710535  0.60064981  0.07827381     0.41120
H3973       H  0.65566901  0.65617917  0.14403468     0.40800
H3974       H  0.68281260  0.71051573  0.16266721     0.38730
H3975       H  0.64524345  0.75136153  0.20187452     0.41870
H3976       H  0.57813118  0.72954195  0.22467806     0.36650
H3977       H  0.51634995  0.69535690  0.15730539     0.42770
H3978       H  0.99923840  0.65320399  0.12136434     0.39180
H3979       H  0.68719425  0.73152255  0.18713936     0.44100
H3980       H  0.58421148  0.74900750  0.20241689     0.42820
H3981       H  0.98541386  0.62566614  0.10493422     0.42960
H3982       H  0.59969005  0.59613242  0.08810824     0.43320
O3983       O  0.82162197  0.96406322  0.18976957    -0.75550
O3984       O  0.85877511  0.96476548  0.20442896    -0.54460
C3985       C  0.84162313  0.97206814  0.20662288     0.78180
O3986       O  0.76628642  0.84032799  0.12766409    -0.60150
O3987       O  0.76209220  0.85090447  0.08419771    -0.53180
C3988       C  0.75364460  0.83637822  0.10445125     0.70190
O3989       O  0.82735244  0.87250592  0.19712356    -0.74710
O3990       O  0.86160509  0.91278097  0.20899173    -0.55280
C3991       C  0.84677280  0.88912444  0.21347382     0.76190
O3992       O  0.76606688  0.92230095  0.11552904    -0.59860
O3993       O  0.76291054  0.89775305  0.07530606    -0.52980
C3994       C  0.75446156  0.90975459  0.09206972     0.72780
Zr3995     Zr  0.80380692  0.93539182  0.14653137     2.54710
O3996       O  0.76746935  0.91888868  0.17685561    -0.80420
O3997       O  0.80114972  0.97386272  0.13963188    -0.93840
Zr3998     Zr  0.80635939  0.87155563  0.15287673     2.64680
O3999       O  0.77432314  0.86024955  0.18820875    -0.98790
O4000       O  0.80524978  0.83022404  0.15021366    -0.80860
O4001       O  0.81980767  0.91403431  0.17308906    -0.84210
O4002       O  0.78939104  0.89270035  0.12724202    -2.18920
O4003       O  0.84765686  0.95958358  0.05427619    -0.67600
O4004       O  0.81208412  0.92055499  0.03965160    -0.52170
C4005       C  0.82962418  0.94429952  0.03625137     0.71170
O4006       O  0.90610366  0.91479282  0.13138074    -0.60510
O4007       O  0.90576034  0.93556421  0.17322452    -0.52490
C4008       C  0.91653955  0.92743806  0.15510382     0.72970
O4009       O  0.84484037  0.86213146  0.06647684    -0.71910
O4010       O  0.80954767  0.86228354  0.04747518    -0.50580
C4011       C  0.82593832  0.85366607  0.04821735     0.74350
O4012       O  0.90113278  0.99226045  0.12893322    -0.67240
O4013       O  0.90281525  0.97966800  0.17170176    -0.54430
C4014       C  0.91140237  0.99613218  0.15370127     0.72730
Zr4015     Zr  0.86372054  0.95946856  0.09948080     2.77540
O4016       O  0.90108897  0.97323153  0.07065019    -0.97980
O4017       O  0.86054069  0.99826871  0.09725676    -0.78810
Zr4018     Zr  0.86512225  0.89558339  0.10450177     2.70070
O4019       O  0.89621124  0.90776107  0.06814610    -0.80050
O4020       O  0.87405593  0.86219417  0.11736491    -0.99140
Zr4021     Zr  0.86575496  0.93694116  0.16980697     2.21500
Zr4022     Zr  0.80196149  0.89292844  0.07971574     2.11130
O4023       O  0.84857772  0.91663906  0.07845822    -2.47820
O4024       O  0.88065277  0.93841475  0.12393763    -0.79850
O4025       O  0.81765177  0.93631629  0.10037958    -0.72040
O4026       O  0.85192692  0.89389682  0.15051907    -2.33000
O4027       O  0.84947853  0.95906138  0.14486546    -2.29210
O4028       O  0.81928705  0.87211059  0.10628049    -0.73800
H4029       H  0.77071077  0.88383129  0.12795039     0.78200
H4030       H  0.85996111  0.88612503  0.16053870     0.79280
H4031       H  0.85381021  0.91679670  0.05952827     0.81510
H4032       H  0.85610458  0.97664199  0.15283898     0.79120
H4033       H  0.82316608  0.83456952  0.15589926     0.42150
H4034       H  0.85671810  0.84673217  0.11790708     0.41120
H4035       H  0.90585510  0.92685196  0.07059970     0.40800
H4036       H  0.89459672  0.96104478  0.05354395     0.38730
H4037       H  0.84165546  0.99221519  0.09716392     0.41870
H4038       H  0.81866906  0.98848214  0.14543398     0.36650
H4039       H  0.77496887  0.91791652  0.19476176     0.42770
H4040       H  0.76547230  0.87022739  0.18499447     0.39180
H4041       H  0.90405677  0.98980928  0.06460075     0.44100
H4042       H  0.78979028  0.97468071  0.15421417     0.42820
H4043       H  0.76109304  0.84204124  0.18266608     0.42960
H4044       H  0.88203433  0.85836017  0.10099036     0.43320
C4045       C  0.96012735  0.56721183  0.15848315    -0.09420
C4046       C  0.98131613  0.56876416  0.17361218     0.06780
C4047       C  0.97778764  0.54680222  0.18581115    -0.03190
C4048       C  0.95444767  0.52331352  0.17994958    -0.07630
C4049       C  0.93457973  0.52144560  0.16202839     0.05890
C4050       C  0.93730302  0.54406513  0.15223557    -0.02660
Br4051     Br  0.91102474  0.54538648  0.13003764    -0.02350
H4052       H  0.96184855  0.58404991  0.14980868     0.09810
H4053       H  0.95231313  0.00624539  0.18842371     0.07820
Br4054     Br  0.50415450  0.54727484  0.20928358    -0.02780
C4055       C  0.68963702  0.79024765  0.13119844    -0.09420
C4056       C  0.68289596  0.76725268  0.11472744     0.06780
C4057       C  0.69753997  0.76804392  0.09137902    -0.03190
C4058       C  0.71974949  0.79133794  0.08625361    -0.07630
C4059       C  0.72685544  0.81418907  0.10343430     0.05890
C4060       C  0.71069424  0.81358079  0.12514175    -0.02660
Br4061     Br  0.71677666  0.84436080  0.14742745    -0.02350
H4062       H  0.67806585  0.79015727  0.14857222     0.09810
H4063       H  0.73212340  0.79130222  0.06980533     0.07820
Br4064     Br  0.68919992  0.73747710  0.06739305    -0.02780
C4065       C  0.63754601  0.62847205  0.24243832    -0.09420
C4066       C  0.64195013  0.65386068  0.24611789     0.06780
C4067       C  0.65977379  0.67107270  0.26760324    -0.03190
C4068       C  0.67120652  0.66215483  0.28620377    -0.07630
C4069       C  0.66574940  0.63634336  0.28328980     0.05890
C4070       C  0.64934972  0.61974653  0.26058078    -0.02660
Br4071     Br  0.64008810  0.58404216  0.25541372    -0.02350
H4072       H  0.62422296  0.61508191  0.22578087     0.09810
H4073       H  0.68290655  0.67491583  0.30414193     0.07820
Br4074     Br  0.66673794  0.70598100  0.27420150    -0.02780
C4075       C  0.62090235  0.65168245  0.01297459    -0.09420
C4076       C  0.63599119  0.66026722  0.03803885     0.06780
C4077       C  0.65748314  0.65626736  0.04074179    -0.03190
C4078       C  0.66179376  0.64140243  0.01989904    -0.07630
C4079       C  0.64521434  0.63072944  0.49598713     0.05890
C4080       C  0.62576958  0.63741702  0.49170668    -0.02660
Br4081     Br  0.60630637  0.62864015  0.45684932    -0.02350
H4082       H  0.60442210  0.65471918  0.01055455     0.09810
H4083       H  0.67798119  0.63793733  0.02247895     0.07820
Br4084     Br  0.68057385  0.66948542  0.07342410    -0.02780
C4085       C  0.61636138  0.98448976  0.48026687    -0.09420
C4086       C  0.64317003  0.50152120  0.47853894     0.06780
C4087       C  0.66065765  0.49622646  0.99294606    -0.03190
C4088       C  0.65116592  0.97545497  0.00967114    -0.07630
C4089       C  0.62429316  0.95897965  0.01196404     0.05890
C4090       C  0.60701569  0.96338799  0.99619071    -0.02660
Br4091     Br  0.57005903  0.94236799  0.99816625    -0.02350
H4092       H  0.60238249  0.98778175  0.46941758     0.09810
H4093       H  0.66487780  0.97343091  0.02267590     0.07820
Br4094     Br  0.69762285  0.51849235  0.99350099    -0.02780
C4095       C  0.65250682  0.98235507  0.25588390    -0.09420
C4096       C  0.64600967  0.99033615  0.23231157     0.06780
C4097       C  0.65460010  0.51670883  0.23123649    -0.03190
C4098       C  0.66738153  0.53439224  0.25455579    -0.07630
C4099       C  0.67206545  0.52619193  0.27921330     0.05890
C4100       C  0.66558632  0.99993722  0.27914888    -0.02660
Br4101     Br  0.67375618  0.98629323  0.30979938    -0.02350
H4102       H  0.64687848  0.96222198  0.25641976     0.09810
H4103       H  0.67248963  0.55434798  0.25376759     0.07820
Br4104     Br  0.64944089  0.52938152  0.19824984    -0.02780
C4105       C  0.56747961  0.54816884  0.18380963    -0.09420
C4106       C  0.58999086  0.57088736  0.17868717     0.06780
C4107       C  0.61204282  0.56920641  0.17036163    -0.03190
C4108       C  0.61006090  0.54517918  0.16329625    -0.07630
C4109       C  0.58709022  0.52229848  0.16678127     0.05890
C4110       C  0.56603720  0.52403050  0.17850695    -0.02660
Br4111     Br  0.53385485  0.99425202  0.18497430    -0.02350
H4112       H  0.55038310  0.54898594  0.19002949     0.09810
H4113       H  0.62666308  0.54441755  0.15496577     0.07820
Br4114     Br  0.64544039  0.59922150  0.16789794    -0.02780
C4115       C  0.60246668  0.80963289  0.09723917    -0.09420
C4116       C  0.57887073  0.80986859  0.09734338     0.06780
C4117       C  0.55590174  0.78674687  0.10150613    -0.03190
C4118       C  0.55705883  0.76488455  0.10796143    -0.07630
C4119       C  0.58085491  0.76510664  0.10959120     0.05890
C4120       C  0.60354593  0.78749319  0.10298434    -0.02660
Br4121     Br  0.63698303  0.78994001  0.10428151    -0.02350
H4122       H  0.62039106  0.82724551  0.09464515     0.09810
H4123       H  0.53927591  0.74768804  0.11199777     0.07820
Br4124     Br  0.52238706  0.78432503  0.09898933    -0.02780
C4125       C  0.68312446  0.89064241  0.07420369    -0.09420
C4126       C  0.68248215  0.91198184  0.08835917     0.06780
C4127       C  0.70652886  0.93349455  0.09866391    -0.03190
C4128       C  0.72954914  0.93268766  0.09667261    -0.07630
C4129       C  0.73008618  0.91058643  0.08541464     0.05890
C4130       C  0.70668930  0.88979580  0.07268180    -0.02660
Br4131     Br  0.70548369  0.85942834  0.05462531    -0.02350
H4132       H  0.66513406  0.87400809  0.06576933     0.09810
H4133       H  0.74730669  0.94937575  0.10559810     0.07820
Br4134     Br  0.71030767  0.96493757  0.11714071    -0.02780
C4135       C  0.94857058  0.92182183  0.18230663    -0.09420
C4136       C  0.94310854  0.93313182  0.16089255     0.06780
C4137       C  0.96181412  0.94551186  0.14150195    -0.03190
C4138       C  0.98454060  0.94417862  0.14196030    -0.07630
C4139       C  0.98909778  0.93089928  0.16174297     0.05890
C4140       C  0.97162533  0.92063447  0.18283552    -0.02660
Br4141     Br  0.97684420  0.90214841  0.21027684    -0.02350
H4142       H  0.93406805  0.91212657  0.19715622     0.09810
H4143       H  0.99818822  0.95244801  0.12590840     0.07820
Br4144     Br  0.95629114  0.96280141  0.11269534    -0.02780
C4145       C  0.53229557  0.64552478  0.01110362    -0.09420
C4146       C  0.52849171  0.65905974  0.03401286     0.06780
C4147       C  0.00465146  0.65892286  0.03570180    -0.03190
C4148       C  0.98426187  0.64347649  0.01609896    -0.07630
C4149       C  0.98728102  0.62811838  0.49449557     0.05890
C4150       C  0.51201896  0.63048468  0.49111694    -0.02660
Br4151     Br  0.51955355  0.61485174  0.45893614    -0.02350
H4152       H  0.55048054  0.64532609  0.00967370     0.09810
H4153       H  0.96587763  0.64321526  0.01789743     0.07820
Br4154     Br  0.99864424  0.67808946  0.06590059    -0.02780
C4155       C  0.96550440  0.63028468  0.25926452    -0.09420
C4156       C  0.97308724  0.64034974  0.28717435     0.06780
C4157       C  0.99918030  0.66001764  0.29356849    -0.03190
C4158       C  0.51758253  0.66722500  0.27305872    -0.07630
C4159       C  0.51042827  0.65568278  0.24564964     0.05890
C4160       C  0.98387589  0.63806203  0.23856698    -0.02660
Br4161     Br  0.97213007  0.62308331  0.20111024    -0.02350
H4162       H  0.94573690  0.61505026  0.25383321     0.09810
H4163       H  0.53771074  0.68135296  0.27874125     0.07820
Br4164     Br  0.51088462  0.67672391  0.33063878    -0.02780
C4165       C  0.86242718  0.97977662  0.47538966    -0.09420
C4166       C  0.85597861  0.49959642  0.47738925     0.06780
C4167       C  0.83598034  0.49711462  0.99500436    -0.03190
C4168       C  0.82410578  0.97603907  0.01122081    -0.07630
C4169       C  0.83141223  0.95682182  0.01028335     0.05890
C4170       C  0.85021484  0.95865689  0.99131347    -0.02660
Br4171     Br  0.86225362  0.93412223  0.98906802    -0.02350
H4172       H  0.87745639  0.98104326  0.46179518     0.09810
H4173       H  0.81074855  0.97594393  0.02655447     0.07820
Br4174     Br  0.82637434  0.52340731  0.00040712    -0.02780
C4175       C  0.82910116  0.98411928  0.25212382    -0.09420
C4176       C  0.84543875  0.99148889  0.22989523     0.06780
C4177       C  0.86525746  0.51738498  0.23025855    -0.03190
C4178       C  0.86982941  0.53498802  0.25356564    -0.07630
C4179       C  0.85475905  0.52724519  0.27688459     0.05890
C4180       C  0.83344413  0.50164489  0.27543510    -0.02660
Br4181     Br  0.80930759  0.48904171  0.30433457    -0.02350
H4182       H  0.81324950  0.96444455  0.25164624     0.09810
H4183       H  0.88611835  0.55441738  0.25396744     0.07820
Br4184     Br  0.88653082  0.52966016  0.19936298    -0.02780
C4185       C  0.53758028  0.55014801  0.38464474    -0.09420
C4186       C  0.55256545  0.55802355  0.40978667     0.06780
C4187       C  0.54080813  0.55943930  0.43479802    -0.03190
C4188       C  0.51617271  0.55743228  0.43354656    -0.07630
C4189       C  0.50313729  0.55367692  0.40776511     0.05890
C4190       C  0.51287340  0.54741459  0.38355917    -0.02660
Br4191     Br  0.49338474  0.53511262  0.34841675    -0.02350
H4192       H  0.54547339  0.54688075  0.36548604     0.09810
H4193       H  0.50809001  0.56059206  0.45257151     0.07820
Br4194     Br  0.55769998  0.56581389  0.47088304    -0.02780
C4195       C  0.78967532  0.60453445  0.35585734    -0.09420
C4196       C  0.76652465  0.58078800  0.35456928     0.06780
C4197       C  0.76751938  0.55771656  0.35154729    -0.03190
C4198       C  0.79150227  0.55862608  0.35181556    -0.07630
C4199       C  0.81465908  0.58232306  0.35517432     0.05890
C4200       C  0.81376441  0.60545878  0.35646849    -0.02660
Br4201     Br  0.84455315  0.63855492  0.36307341    -0.02350
H4202       H  0.78905466  0.62237645  0.35860504     0.09810
H4203       H  0.79208935  0.54075956  0.35079629     0.07820
Br4204     Br  0.73671772  0.52453412  0.34819209    -0.02780
C4205       C  0.96463583  0.81172935  0.00858044    -0.09420
C4206       C  0.97183681  0.81290140  0.48104025     0.06780
C4207       C  0.49852044  0.82138616  0.47641360    -0.03190
C4208       C  0.51774689  0.83423316  0.49823251    -0.07630
C4209       C  0.51072643  0.83690198  0.02543323     0.05890
C4210       C  0.98374346  0.82254513  0.03064903    -0.02660
Br4211     Br  0.97156452  0.81671814  0.06744517    -0.02350
H4212       H  0.94436158  0.80421169  0.01300045     0.09810
H4213       H  0.53808742  0.84344728  0.49355741     0.07820
Br4214     Br  0.50981328  0.81806790  0.43985171    -0.02780
C4215       C  0.99386421  0.84415450  0.26376585    -0.09420
C4216       C  0.98960378  0.86222627  0.28001404     0.06780
C4217       C  0.00430084  0.88850259  0.27525146    -0.03190
C4218       C  0.52173719  0.89584787  0.25415915    -0.07630
C4219       C  0.52512155  0.87775345  0.23680746     0.05890
C4220       C  0.51128685  0.85151801  0.24234938    -0.02660
Br4221     Br  0.51455097  0.82428124  0.22203446    -0.02350
H4222       H  0.98315208  0.82397448  0.26733512     0.09810
H4223       H  0.53228514  0.91612397  0.25100317     0.07820
Br4224     Br  0.00260899  0.91617590  0.29659500    -0.02780
C4225       C  0.90186869  0.93649040  0.37100214    -0.09420
C4226       C  0.92485854  0.93841836  0.38110909     0.06780
C4227       C  0.94185478  0.95911971  0.40031262    -0.03190
C4228       C  0.93655250  0.97897714  0.40730253    -0.07630
C4229       C  0.91340263  0.97700204  0.39702564     0.05890
C4230       C  0.89529958  0.95482075  0.38016319    -0.02660
Br4231     Br  0.86041375  0.94710257  0.37124274    -0.02350
H4232       H  0.88769241  0.91925545  0.35829418     0.09810
H4233       H  0.95050306  0.49591290  0.42048493     0.07820
Br4234     Br  0.97099185  0.95998349  0.41905194    -0.02780
C4235       C  0.91168551  0.69179911  0.40357599    -0.09420
C4236       C  0.91385693  0.68081645  0.37745738     0.06780
C4237       C  0.91380492  0.69244068  0.35344343    -0.03190
C4238       C  0.91220718  0.71495159  0.35607497    -0.07630
C4239       C  0.91116898  0.72656150  0.38235002     0.05890
C4240       C  0.91061603  0.71454488  0.40630835    -0.02660
Br4241     Br  0.91025163  0.72859571  0.44353554    -0.02350
H4242       H  0.91122555  0.68283893  0.42226577     0.09810
H4243       H  0.91245689  0.72379081  0.33735646     0.07820
Br4244     Br  0.91785794  0.67996103  0.31685809    -0.02780
C4245       C  0.54018651  0.93568943  0.38895588    -0.09420
C4246       C  0.51859504  0.93536187  0.37633714     0.06780
C4247       C  0.51948714  0.95870168  0.37180966    -0.03190
C4248       C  0.54103758  0.98181393  0.38235006    -0.07630
C4249       C  0.56180084  0.98174095  0.39627428     0.05890
C4250       C  0.56166600  0.95862781  0.39889615    -0.02660
Br4251     Br  0.59125684  0.95748674  0.41352422    -0.02350
H4252       H  0.54011647  0.91786684  0.39168170     0.09810
H4253       H  0.54235331  0.49992093  0.37821479     0.07820
Br4254     Br  0.99294677  0.96062946  0.35084332    -0.02780
C4255       C  0.79017693  0.68137245  0.38088295    -0.09420
C4256       C  0.76719192  0.68176485  0.37495396     0.06780
C4257       C  0.76780062  0.70535359  0.37360456    -0.03250
C4258       C  0.79142012  0.72826674  0.37777609    -0.07630
C4259       C  0.81456604  0.72808501  0.38390591     0.05890
C4260       C  0.81385612  0.70436783  0.38546218    -0.02660
Br4261     Br  0.84441746  0.70205370  0.39269818    -0.02350
H4262       H  0.78955741  0.66317506  0.38276567     0.09810
H4263       H  0.79172572  0.74637491  0.37628732     0.07820
Br4264     Br  0.73677192  0.70707033  0.36644083    -0.02780
C4265       C  0.84732170  0.81027089  0.00822987    -0.09420
C4266       C  0.84267492  0.81346113  0.48088425     0.06780
C4267       C  0.82470144  0.82226907  0.47632617    -0.03190
C4268       C  0.81702957  0.83335407  0.99858032    -0.07630
C4269       C  0.82529195  0.83404684  0.02597131     0.05890
C4270       C  0.83779746  0.81941042  0.03055610    -0.02660
Br4271     Br  0.84228187  0.81099675  0.06676766    -0.02350
H4272       H  0.85982122  0.80236166  0.01245817     0.09810
H4273       H  0.80610159  0.84290354  0.99421924     0.07820
Br4274     Br  0.81155586  0.82130004  0.43963690    -0.02780
C4275       C  0.84822454  0.85391970  0.23586836    -0.09420
C4276       C  0.85374401  0.87974606  0.23784234     0.06780
C4277       C  0.86799512  0.89630812  0.26177151    -0.03190
C4278       C  0.87725338  0.88719533  0.28223838    -0.07630
C4279       C  0.87230639  0.86161939  0.27978651     0.05890
C4280       C  0.85733062  0.84481065  0.25648005    -0.02660
Br4281     Br  0.85065926  0.80993626  0.25038073    -0.02350
H4282       H  0.83767771  0.84091484  0.21759134     0.09810
H4283       H  0.88825633  0.90016851  0.30037900     0.07820
Br4284     Br  0.87472766  0.93122284  0.26854667    -0.02780
O4285       O  0.86787017  0.83180872  0.81168389    -0.75550
O4286       O  0.90689078  0.86863195  0.81034883    -0.54460
C4287       C  0.88307187  0.85330631  0.80182906     0.78180
O4288       O  0.86903952  0.83681812  0.94729264    -0.60150
O4289       O  0.87051158  0.80027970  0.95388026    -0.53180
C4290       C  0.86178797  0.81636980  0.95928052     0.70190
O4291       O  0.91378397  0.90172114  0.90049578    -0.74710
O4292       O  0.93193488  0.90672569  0.85818017    -0.55280
C4293       C  0.92437109  0.91443157  0.87991174     0.76190
O4294       O  0.84099275  0.76638860  0.86518449    -0.59860
O4295       O  0.85616635  0.75900454  0.90510475    -0.52980
C4296       C  0.83901281  0.75268107  0.88500853     0.72780
Zr4297     Zr  0.87043278  0.80696630  0.84808154     2.54710
O4298       O  0.82776784  0.80369315  0.84957546    -0.80420
O4299       O  0.85735691  0.77517895  0.80764698    -0.93840
Zr4300     Zr  0.89786953  0.85914680  0.91282014     2.64680
O4301       O  0.86150636  0.86602776  0.90308456    -0.98790
O4302       O  0.91080155  0.88698896  0.95640550    -0.80860
O4303       O  0.89210216  0.85129506  0.86389490    -0.84210
O4304       O  0.87455560  0.81479693  0.89737520    -2.18920
O4305       O  0.92386533  0.76524933  0.86358518    -0.67600
O4306       O  0.90276910  0.75884146  0.90411616    -0.52170
C4307       C  0.91257345  0.75184313  0.88367607     0.71170
O4308       O  0.99252757  0.89682767  0.89361318    -0.60510
O4309       O  0.97701440  0.90536108  0.85519352    -0.52490
C4310       C  0.99451049  0.91090344  0.87432180     0.72970
O4311       O  0.96903443  0.83519149  0.94627578    -0.71910
O4312       O  0.93058112  0.79985700  0.95403764    -0.50580
C4313       C  0.95557609  0.81535548  0.95896435     0.74350
O4314       O  0.96523424  0.83260628  0.81265677    -0.67240
O4315       O  0.95962606  0.86715366  0.80859532    -0.54430
C4316       C  0.97021898  0.85339093  0.80175509     0.72730
Zr4317     Zr  0.93604064  0.80621781  0.84703204     2.77540
O4318       O  0.97458378  0.80135041  0.84679321    -0.97980
O4319       O  0.91674696  0.77671085  0.80498534    -0.78810
Zr4320     Zr  0.96300302  0.85769607  0.91182877     2.70070
O4321       O  0.00636107  0.86280306  0.90995650    -0.80050
O4322       O  0.97570917  0.88863074  0.95298915    -0.99140
Zr4323     Zr  0.93447669  0.86823890  0.84715042     2.21500
Zr4324     Zr  0.89885177  0.79686960  0.91647477     2.11130
O4325       O  0.94050707  0.81344034  0.89641335    -2.47820
O4326       O  0.95947841  0.85027838  0.86294724    -0.79850
O4327       O  0.89471598  0.78939291  0.86633612    -0.72040
O4328       O  0.93990162  0.87682852  0.89641161    -2.33000
O4329       O  0.91187005  0.82405402  0.82922651    -2.29210
O4330       O  0.92204712  0.84164870  0.93193680    -0.73800
H4331       H  0.85713447  0.80699140  0.90384670     0.78200
H4332       H  0.95006134  0.89496204  0.90267746     0.79280
H4333       H  0.94975802  0.80515086  0.90273460     0.81510
H4334       H  0.91069690  0.82208587  0.80913254     0.79120
H4335       H  0.93000811  0.89720365  0.95639709     0.42150
H4336       H  0.96534498  0.87841976  0.96791418     0.41120
H4337       H  0.50633599  0.85415480  0.89152676     0.40800
H4338       H  0.97716364  0.79834075  0.86608723     0.38730
H4339       H  0.90008009  0.76268017  0.81070219     0.41870
H4340       H  0.86901443  0.78443159  0.79299485     0.36650
H4341       H  0.83131488  0.82172241  0.85042997     0.42770
H4342       H  0.84699961  0.84871087  0.89643377     0.39180
H4343       H  0.96904144  0.78461560  0.83570195     0.44100
H4344       H  0.84007513  0.77226613  0.80137279     0.42820
H4345       H  0.85666766  0.87035805  0.92154236     0.42960
H4346       H  0.99377928  0.89300885  0.95798092     0.43320
O4347       O  0.92693286  0.65547601  0.89886104    -0.75550
O4348       O  0.90660059  0.64043072  0.85569512    -0.54460
C4349       C  0.91626688  0.65753659  0.87681229     0.78180
O4350       O  0.98285330  0.57211645  0.88411738    -0.60150
O4351       O  0.96635868  0.55566490  0.92483395    -0.53180
C4352       C  0.98252733  0.56057299  0.90548187     0.70190
O4353       O  0.96909172  0.61804859  0.82533963    -0.74710
O4354       O  0.93327775  0.62051839  0.81250416    -0.55280
C4355       C  0.95713908  0.62558420  0.80977551     0.76190
O4356       O  0.96046299  0.62895252  0.96021614    -0.59860
O4357       O  0.95652229  0.58975357  0.96633662    -0.52980
C4358       C  0.96634543  0.61436754  0.97269078     0.72780
Zr4359     Zr  0.93459379  0.62462097  0.91968066     2.54710
O4360       O  0.97509033  0.66555048  0.92204378    -0.80420
O4361       O  0.91661126  0.64014460  0.95690923    -0.93840
Zr4362     Zr  0.96110596  0.59265291  0.86371108     2.64680
O4363       O  0.00433175  0.62931627  0.87591103    -0.98790
O4364       O  0.97693710  0.57595847  0.82539237    -0.80860
O4365       O  0.94218653  0.61932318  0.87201492    -0.84210
O4366       O  0.95555568  0.59991295  0.91111167    -2.18920
O4367       O  0.85750950  0.53044452  0.94723593    -0.67600
O4368       O  0.89545514  0.53167345  0.95934941    -0.52170
C4369       C  0.87063573  0.52245804  0.96080814     0.71170
O4370       O  0.85928250  0.53284842  0.82585147    -0.60510
O4371       O  0.87976244  0.56856956  0.80446594    -0.52490
C4372       C  0.86452881  0.54401648  0.80367001     0.72970
O4373       O  0.90126110  0.50260357  0.87610864    -0.71910
O4374       O  0.92084250  0.51648250  0.91972350    -0.50580
C4375       C  0.91117623  0.49995765  0.89827416     0.74350
O4376       O  0.83853400  0.57112174  0.88370156    -0.67240
O4377       O  0.85792133  0.59298283  0.84615395    -0.54430
C4378       C  0.83871925  0.58220612  0.86192350     0.72730
Zr4379     Zr  0.86623281  0.56223297  0.91306778     2.77540
O4380       O  0.82011925  0.53024921  0.91132073    -0.97980
O4381       O  0.85898698  0.58741855  0.95066014    -0.78810
Zr4382     Zr  0.89167269  0.53165346  0.85486942     2.70070
O4383       O  0.85268452  0.98956544  0.84942963    -0.80050
O4384       O  0.90502920  0.51707498  0.81266157    -0.99140
Zr4385     Zr  0.90087649  0.59744898  0.84725293     2.21500
Zr4386     Zr  0.92734164  0.55927343  0.92751756     2.11130
O4387       O  0.88577041  0.53659811  0.90270218    -2.47820
O4388       O  0.87234480  0.55717230  0.86477173    -0.79850
O4389       O  0.90720837  0.58480978  0.93825359    -0.72040
O4390       O  0.92057595  0.57130021  0.83792091    -2.33000
O4391       O  0.89339642  0.60263331  0.89585079    -2.29210
O4392       O  0.93270158  0.55246524  0.87913210    -0.73800
H4393       H  0.97268712  0.60814804  0.92019115     0.78200
H4394       H  0.92292748  0.56902431  0.81831039     0.79280
H4395       H  0.87532504  0.51928096  0.90773646     0.81510
H4396       H  0.88478628  0.61272647  0.89864095     0.79120
H4397       H  0.96165964  0.55928468  0.81830892     0.42150
H4398       H  0.91659377  0.51087094  0.81936353     0.41120
H4399       H  0.84135116  0.49068331  0.86387430     0.40800
H4400       H  0.81940414  0.51337330  0.90766933     0.38730
H4401       H  0.86077025  0.58029727  0.96775740     0.41870
H4402       H  0.90121717  0.63964366  0.94807875     0.36650
H4403       H  0.98667684  0.66189951  0.91007737     0.42770
H4404       H  0.01131019  0.62433649  0.89143626     0.39180
H4405       H  0.81476830  0.53069180  0.93066064     0.44100
H4406       H  0.92939856  0.65875634  0.96068409     0.42820
H4407       H  0.51478610  0.62913173  0.86002912     0.42960
H4408       H  0.88912574  0.50121857  0.80497478     0.43320
O4409       O  0.50812009  0.91287100  0.63272941    -0.75550
O4410       O  0.52932536  0.93406813  0.67448833    -0.54460
C4411       C  0.51002194  0.92512963  0.65656189     0.78180
O4412       O  0.57068046  0.83860741  0.62487539    -0.60150
O4413       O  0.58834976  0.85154120  0.58315610    -0.53180
C4414       C  0.57923106  0.83498490  0.60151711     0.70190
O4415       O  0.54388494  0.87077036  0.69538146    -0.74710
O4416       O  0.55133806  0.91117166  0.70909505    -0.55280
C4417       C  0.54143509  0.88708224  0.71238266     0.76190
O4418       O  0.51981438  0.86676928  0.56430987    -0.59860
O4419       O  0.55487957  0.86493745  0.54730976    -0.52980
C4420       C  0.53001918  0.85732625  0.54698733     0.72780
Zr4421     Zr  0.53267670  0.89807364  0.60441599     2.54710
O4422       O  0.98933806  0.86363351  0.61230505    -0.80420
O4423       O  0.51739572  0.91524274  0.56949312    -0.93840
Zr4424     Zr  0.56572034  0.87139831  0.65250382     2.64680
O4425       O  0.52454978  0.83131547  0.65261165    -0.98790
O4426       O  0.58887115  0.85914081  0.68420976    -0.80860
O4427       O  0.54303171  0.89443306  0.65041558    -0.84210
O4428       O  0.55436348  0.87381916  0.60628690    -2.18920
O4429       O  0.61311716  0.96193079  0.55695975    -0.67600
O4430       O  0.60927217  0.92291697  0.54111874    -0.52170
C4431       C  0.61515465  0.94666364  0.53825200     0.71170
O4432       O  0.64244346  0.96262375  0.69281963    -0.60510
O4433       O  0.60625395  0.96441299  0.70612951    -0.52490
C4434       C  0.63050376  0.97108289  0.70900169     0.72970
O4435       O  0.65789519  0.92225240  0.61970416    -0.71910
O4436       O  0.63727127  0.90027430  0.57802860    -0.50580
C4437       C  0.65740381  0.91119304  0.59549514     0.74350
O4438       O  0.59476930  0.99514403  0.63380711    -0.67240
O4439       O  0.57640833  0.97958690  0.67428190    -0.54430
C4440       C  0.58584261  0.99733468  0.65770029     0.72730
Zr4441     Zr  0.59898866  0.96227572  0.60318651     2.77540
O4442       O  0.64161312  0.00083329  0.60432388    -0.97980
O4443       O  0.57778163  0.97910898  0.57493407    -0.78810
Zr4444     Zr  0.63216126  0.93491716  0.64926074     2.70070
O4445       O  0.67037908  0.97637558  0.64422151    -0.80050
O4446       O  0.65302530  0.91965735  0.68019227    -0.99140
Zr4447     Zr  0.57150836  0.93688669  0.67127998     2.21500
Zr4448     Zr  0.59289201  0.89496130  0.58072630     2.11130
O4449       O  0.62091321  0.93788759  0.60307823    -2.47820
O4450       O  0.61077926  0.95931183  0.64859509    -0.79850
O4451       O  0.57120793  0.91997896  0.58032283    -0.72040
O4452       O  0.59408475  0.91330596  0.67429576    -2.33000
O4453       O  0.55988455  0.94047627  0.62531479    -2.29210
O4454       O  0.60413225  0.89268612  0.62791055    -0.73800
H4455       H  0.54334437  0.85622772  0.59844521     0.78200
H4456       H  0.59842319  0.91271868  0.69341354     0.79280
H4457       H  0.63661364  0.94635919  0.59311949     0.81510
H4458       H  0.55117050  0.95050713  0.62516782     0.79120
H4459       H  0.58737433  0.86630719  0.70291909     0.42150
H4460       H  0.64759983  0.90185715  0.67213355     0.41120
H4461       H  0.66466136  0.98926742  0.64829398     0.40800
H4462       H  0.65293972  0.99501733  0.59494285     0.38730
H4463       H  0.56534813  0.96407106  0.56217132     0.41870
H4464       H  0.51861450  0.93111116  0.57913810     0.36650
H4465       H  0.99198301  0.85519566  0.62776600     0.42770
H4466       H  0.51731854  0.82705956  0.63316495     0.39180
H4467       H  0.63948506  0.51156437  0.59120364     0.44100
H4468       H  0.49848204  0.90297206  0.56691072     0.42820
H4469       H  0.52934221  0.81802195  0.65576443     0.42960
H4470       H  0.67177571  0.92968956  0.67677200     0.43320
O4471       O  0.64982602  0.61954161  0.82461117    -0.75550
O4472       O  0.68693866  0.61960220  0.81140793    -0.54460
C4473       C  0.66835047  0.62488264  0.80818018     0.78180
O4474       O  0.67213991  0.63095525  0.96133402    -0.60150
O4475       O  0.63592712  0.59247660  0.96713552    -0.53180
C4476       C  0.65154669  0.61684347  0.97374690     0.70190
O4477       O  0.73103115  0.65646460  0.89874767    -0.74710
O4478       O  0.73440095  0.64087802  0.85492973    -0.55280
C4479       C  0.74248606  0.65816518  0.87593097     0.76190
O4480       O  0.59150351  0.57746004  0.88668785    -0.59860
O4481       O  0.59149887  0.56039224  0.92705150    -0.52980
C4482       C  0.58037152  0.56593934  0.90812160     0.72780
Zr4483     Zr  0.63339871  0.59702665  0.86520220     2.54710
O4484       O  0.63136102  0.63613749  0.87848584    -0.80420
O4485       O  0.59751182  0.58170012  0.83055560    -0.93840
Zr4486     Zr  0.69276588  0.62603555  0.92028188     2.64680
O4487       O  0.69580217  0.66827187  0.92311963    -0.98790
O4488       O  0.72666858  0.63962631  0.95687499    -0.80860
O4489       O  0.67929496  0.62148776  0.87280995    -0.84210
O4490       O  0.64695617  0.60324537  0.91230947    -2.18920
O4491       O  0.59846207  0.50680324  0.87517341    -0.67600
O4492       O  0.59440525  0.52055735  0.91951040    -0.52170
C4493       C  0.58643270  0.50470807  0.89745923     0.71170
O4494       O  0.73112243  0.56908737  0.88267960    -0.60510
O4495       O  0.73451569  0.59238667  0.84610375    -0.52490
C4496       C  0.74228563  0.58054930  0.86122628     0.72970
O4497       O  0.67206021  0.53045930  0.94676584    -0.71910
O4498       O  0.63681601  0.53394300  0.95970901    -0.50580
C4499       C  0.65161232  0.52376006  0.96102781     0.74350
O4500       O  0.67187768  0.53299671  0.82798044    -0.67240
O4501       O  0.68868712  0.56814077  0.80547453    -0.54430
C4502       C  0.67873203  0.54355827  0.80548385     0.72730
Zr4503     Zr  0.63787002  0.53379485  0.85434097     2.77540
O4504       O  0.62661874  0.98879519  0.84438500    -0.97980
O4505       O  0.61182786  0.52425631  0.81127690    -0.78810
Zr4506     Zr  0.69485015  0.56125600  0.91193812     2.70070
O4507       O  0.70370190  0.52553265  0.90896034    -0.80050
O4508       O  0.72872199  0.58415748  0.94887311    -0.99140
Zr4509     Zr  0.69671188  0.59796884  0.84741777     2.21500
Zr4510     Zr  0.63296503  0.56190127  0.92791761     2.11130
O4511       O  0.64936161  0.53746314  0.90209636    -2.47820
O4512       O  0.68296963  0.55689861  0.86398400    -0.79850
O4513       O  0.62014519  0.55627417  0.87985818    -0.72040
O4514       O  0.70992988  0.60245290  0.89570313    -2.33000
O4515       O  0.65063480  0.57426294  0.83840208    -2.29210
O4516       O  0.67876127  0.58548390  0.93802211    -0.73800
H4517       H  0.63882687  0.61210619  0.92167174     0.78200
H4518       H  0.72866602  0.61190973  0.89822005     0.79280
H4519       H  0.64183453  0.52008295  0.90720390     0.81510
H4520       H  0.64600304  0.57243184  0.81883126     0.79120
H4521       H  0.74098838  0.63847458  0.94754981     0.42150
H4522       H  0.71936832  0.57994270  0.96628351     0.41120
H4523       H  0.69046131  0.51251374  0.89498093     0.40800
H4524       H  0.62611889  0.98256201  0.86281018     0.38730
H4525       H  0.59644170  0.52554949  0.81707980     0.41870
H4526       H  0.60325143  0.57570311  0.81368115     0.36650
H4527       H  0.64914187  0.65035534  0.87608546     0.42770
H4528       H  0.67769650  0.66477399  0.92484012     0.39180
H4529       H  0.60830307  0.97958035  0.83697753     0.44100
H4530       H  0.59746161  0.59743420  0.82580081     0.42820
H4531       H  0.70460549  0.67689260  0.94152027     0.42960
H4532       H  0.73860103  0.57475769  0.94833105     0.43320
O4533       O  0.53484121  0.67820810  0.70832397    -0.75550
O4534       O  0.54283834  0.64797481  0.72508868    -0.54460
C4535       C  0.53083600  0.66112652  0.72515593     0.78180
O4536       O  0.53061033  0.64659707  0.57668695    -0.60150
O4537       O  0.56714713  0.68173975  0.56426860    -0.53180
C4538       C  0.54343412  0.66323339  0.55989546     0.70190
O4539       O  0.50830942  0.60143026  0.64763903    -0.74710
O4540       O  0.52560854  0.60125444  0.68959536    -0.55280
C4541       C  0.50690997  0.59191607  0.67067372     0.76190
O4542       O  0.57117685  0.73355638  0.64164970    -0.59860
O4543       O  0.59214599  0.73202613  0.60245350    -0.52980
C4544       C  0.58150383  0.74210993  0.61849679     0.72780
Zr4545     Zr  0.56510774  0.69967624  0.67196202     2.54710
O4546       O  0.52865228  0.70782064  0.67232476    -0.80420
O4547       O  0.58799898  0.73556351  0.70783266    -0.93840
Zr4548     Zr  0.53624390  0.63567977  0.62134320     2.64680
O4549       O  0.99481911  0.63512912  0.62284149    -0.98790
O4550       O  0.51819877  0.59654812  0.58925477    -0.80860
O4551       O  0.54321483  0.65391434  0.66766002    -0.84210
O4552       O  0.55703710  0.68118233  0.62496037    -2.18920
O4553       O  0.65969584  0.73654825  0.64671366    -0.67600
O4554       O  0.64119688  0.73121118  0.60326040    -0.52170
C4555       C  0.65990081  0.74325615  0.62190184     0.71170
O4556       O  0.59927351  0.60469856  0.65247157    -0.60510
O4557       O  0.57568651  0.60207808  0.69044749    -0.52490
C4558       C  0.58840691  0.59431127  0.67427768     0.72970
O4559       O  0.62124011  0.64872748  0.58103165    -0.71910
O4560       O  0.61775382  0.68205679  0.56611050    -0.50580
C4561       C  0.62452526  0.66454779  0.56332979     0.74350
O4562       O  0.64051870  0.67969108  0.71201908    -0.67240
O4563       O  0.60227264  0.64738239  0.72598761    -0.54430
C4564       C  0.62733230  0.66123681  0.72729613     0.72730
Zr4565     Zr  0.63213184  0.70168968  0.67575951     2.77540
O4566       O  0.67750250  0.71268599  0.68167258    -0.97980
O4567       O  0.64092044  0.73621073  0.71206428    -0.78810
Zr4568     Zr  0.60327452  0.63773787  0.62501823     2.70070
O4569       O  0.64638435  0.64228595  0.62873411    -0.80050
O4570       O  0.58452149  0.59738241  0.59483751    -0.99140
Zr4571     Zr  0.56900206  0.63980691  0.69067468     2.21500
Zr4572     Zr  0.59799052  0.69473176  0.60455536     2.11130
O4573       O  0.62559619  0.68329406  0.62877293    -2.47820
O4574       O  0.61044939  0.65603054  0.67125236    -0.79850
O4575       O  0.60585257  0.71426866  0.65170010    -0.72040
O4576       O  0.56192131  0.62171129  0.64352330    -2.33000
O4577       O  0.59113178  0.68652883  0.69652716    -2.29210
O4578       O  0.57631880  0.64893714  0.60047032    -0.73800
H4579       H  0.54664620  0.68659814  0.61506134     0.78200
H4580       H  0.55314855  0.60309353  0.64206643     0.79280
H4581       H  0.64212611  0.68942543  0.62031696     0.81510
H4582       H  0.59347908  0.69273290  0.71603612     0.79120
H4583       H  0.52853668  0.58825400  0.59356286     0.42150
H4584       H  0.57710508  0.60064855  0.57827308     0.41120
H4585       H  0.65566832  0.65617873  0.64403421     0.40800
H4586       H  0.68281125  0.71051483  0.66266745     0.38730
H4587       H  0.64524299  0.75135954  0.70187406     0.41870
H4588       H  0.57813159  0.72954126  0.72467645     0.36650
H4589       H  0.51635046  0.69535693  0.65730550     0.42770
H4590       H  0.99923788  0.65320368  0.62136481     0.39180
H4591       H  0.68719234  0.73152191  0.68713906     0.44100
H4592       H  0.58421146  0.74900713  0.70241577     0.42820
H4593       H  0.98541317  0.62566640  0.60493343     0.42960
H4594       H  0.59969008  0.59613160  0.58810747     0.43320
O4595       O  0.82162286  0.96405968  0.68976625    -0.75550
O4596       O  0.85877563  0.96476332  0.70442803    -0.54460
C4597       C  0.84162345  0.97206568  0.70662064     0.78180
O4598       O  0.76627881  0.84031701  0.62769013    -0.60150
O4599       O  0.76208947  0.85087535  0.58421372    -0.53180
C4600       C  0.75363984  0.83635970  0.60447319     0.70190
O4601       O  0.82734909  0.87250506  0.69714362    -0.74710
O4602       O  0.86160707  0.91278038  0.70899731    -0.55280
C4603       C  0.84677349  0.88912562  0.71348642     0.76190
O4604       O  0.76606817  0.92229736  0.61553442    -0.59860
O4605       O  0.76291341  0.89773975  0.57532064    -0.52980
C4606       C  0.75446484  0.90974794  0.59207631     0.72780
Zr4607     Zr  0.80380842  0.93538454  0.64652958     2.54710
O4608       O  0.76747279  0.91889246  0.67685755    -0.80420
O4609       O  0.80115388  0.97385671  0.63962879    -0.93840
Zr4610     Zr  0.80635515  0.87154559  0.65289894     2.64680
O4611       O  0.77431968  0.86023883  0.68823212    -0.98790
O4612       O  0.80524526  0.83021405  0.65024147    -0.80860
O4613       O  0.81980783  0.91403122  0.67309562    -0.84210
O4614       O  0.78938322  0.89268414  0.62726165    -2.18920
O4615       O  0.84769388  0.95942645  0.55415732    -0.67600
O4616       O  0.81206899  0.92041378  0.53960611    -0.52170
C4617       C  0.82964665  0.94412497  0.53614781     0.71170
O4618       O  0.90610561  0.91478508  0.63139372    -0.60510
O4619       O  0.90576379  0.93556858  0.67322927    -0.52490
C4620       C  0.91654320  0.92743925  0.65511235     0.72970
O4621       O  0.84485196  0.86212462  0.56647998    -0.71910
O4622       O  0.80953153  0.86224292  0.54750562    -0.50580
C4623       C  0.82593857  0.85364582  0.54823198     0.74350
O4624       O  0.90112582  0.99224404  0.62892039    -0.67240
O4625       O  0.90281113  0.97966310  0.67169584    -0.54430
C4626       C  0.91139730  0.99612260  0.65369063     0.72730
Zr4627     Zr  0.86371257  0.95944389  0.59945851     2.77540
O4628       O  0.90112213  0.97326747  0.57068316    -0.97980
O4629       O  0.86049116  0.99821890  0.59720705    -0.78810
Zr4630     Zr  0.86511988  0.89556124  0.60452257     2.70070
O4631       O  0.89620796  0.90774897  0.56816577    -0.80050
O4632       O  0.87406207  0.86217678  0.61738261    -0.99140
Zr4633     Zr  0.86575383  0.93693665  0.66980755     2.21500
Zr4634     Zr  0.80195330  0.89289142  0.57973970     2.11130
O4635       O  0.84856808  0.91660337  0.57847538    -2.47820
O4636       O  0.88064568  0.93839821  0.62393527    -0.79850
O4637       O  0.81764200  0.93629296  0.60036991    -0.72040
O4638       O  0.85192411  0.89388688  0.65053833    -2.33000
O4639       O  0.84947782  0.95904993  0.64484999    -2.29210
O4640       O  0.81928368  0.87208018  0.60630627    -0.73800
H4641       H  0.77070296  0.88381719  0.62797072     0.78200
H4642       H  0.85996001  0.88611870  0.66056153     0.79280
H4643       H  0.85379919  0.91674753  0.55954625     0.81510
H4644       H  0.85610364  0.97663149  0.65282020     0.79120
H4645       H  0.82316635  0.83456191  0.65590841     0.42150
H4646       H  0.85672574  0.84671242  0.61792293     0.41120
H4647       H  0.90585146  0.92683973  0.57062484     0.40800
H4648       H  0.89467886  0.96104646  0.55360161     0.38730
H4649       H  0.84159935  0.99214064  0.59705290     0.41870
H4650       H  0.81867567  0.98847549  0.64542316     0.36650
H4651       H  0.77497017  0.91791260  0.69476125     0.42770
H4652       H  0.76546810  0.87021605  0.68501783     0.39180
H4653       H  0.90403483  0.98980792  0.56457619     0.44100
H4654       H  0.78980043  0.97467982  0.65421553     0.42820
H4655       H  0.76108977  0.84203039  0.68268972     0.42960
H4656       H  0.88204227  0.85834633  0.60100743     0.43320
C4657       C  0.96012221  0.56720599  0.65847719    -0.09420
C4658       C  0.98131141  0.56876013  0.67360826     0.06780
C4659       C  0.97778304  0.54679791  0.68580666    -0.03190
C4660       C  0.95444382  0.52330786  0.67994199    -0.07630
C4661       C  0.93457606  0.52143797  0.66201755     0.05890
C4662       C  0.93729850  0.54405770  0.65222693    -0.02660
Br4663     Br  0.91101699  0.54537481  0.63003024    -0.02350
H4664       H  0.96184258  0.58404399  0.64980338     0.09810
H4665       H  0.95230977  0.00624010  0.68841655     0.07820
Br4666     Br  0.50415031  0.54727281  0.70928169    -0.02780
C4667       C  0.68962727  0.79023815  0.63120465    -0.09420
C4668       C  0.68288822  0.76724493  0.61473138     0.06780
C4669       C  0.69753400  0.76803557  0.59138532    -0.03190
C4670       C  0.71974640  0.79132763  0.58626655    -0.07630
C4671       C  0.72685237  0.81417508  0.60345265     0.05890
C4672       C  0.71068773  0.81356986  0.62515381    -0.02660
Br4673     Br  0.71676936  0.84435192  0.64743528    -0.02350
H4674       H  0.67805273  0.79014723  0.64857531     0.09810
H4675       H  0.73212265  0.79129290  0.56982040     0.07820
Br4676     Br  0.68919364  0.73747126  0.56739468    -0.02780
C4677       C  0.63754563  0.62847152  0.74243871    -0.09420
C4678       C  0.64194934  0.65385996  0.74611842     0.06780
C4679       C  0.65977346  0.67107234  0.76760331    -0.03190
C4680       C  0.67120677  0.66215478  0.78620350    -0.07630
C4681       C  0.66574991  0.63634339  0.78328950     0.05890
C4682       C  0.64934989  0.61974635  0.76058080    -0.02660
Br4683     Br  0.64008827  0.58404202  0.75541382    -0.02350
H4684       H  0.62422247  0.61508125  0.72578140     0.09810
H4685       H  0.68290706  0.67491595  0.80414145     0.07820
Br4686     Br  0.66673772  0.70598072  0.77420139    -0.02780
C4687       C  0.62090244  0.65168265  0.51297466    -0.09420
C4688       C  0.63599122  0.66026725  0.53803893     0.06780
C4689       C  0.65748321  0.65626743  0.54074183    -0.03190
C4690       C  0.66179380  0.64140254  0.51989903    -0.07630
C4691       C  0.64521439  0.63072931  0.99598706     0.05890
C4692       C  0.62576957  0.63741683  0.99170661    -0.02660
Br4693     Br  0.60630643  0.62864003  0.95684922    -0.02350
H4694       H  0.60442218  0.65471937  0.51055466     0.09810
H4695       H  0.67798120  0.63793738  0.52247888     0.07820
Br4696     Br  0.68057383  0.66948527  0.57342419    -0.02780
C4697       C  0.61636156  0.98448969  0.98026682    -0.09420
C4698       C  0.64317026  0.50152098  0.97853891     0.06780
C4699       C  0.66065759  0.49622667  0.49294584    -0.03190
C4700       C  0.65116601  0.97545509  0.50967075    -0.07630
C4701       C  0.62429330  0.95897970  0.51196375     0.05890
C4702       C  0.60701569  0.96338802  0.49619065    -0.02660
Br4703     Br  0.57005906  0.94236798  0.49816632    -0.02350
H4704       H  0.60238278  0.98778177  0.96941744     0.09810
H4705       H  0.66487798  0.97343100  0.52267533     0.07820
Br4706     Br  0.69762283  0.51849246  0.49350066    -0.02780
C4707       C  0.65250721  0.98235507  0.75588373    -0.09420
C4708       C  0.64601026  0.99033614  0.73231125     0.06780
C4709       C  0.65460034  0.51670877  0.73123630    -0.03190
C4710       C  0.66738152  0.53439216  0.75455566    -0.07630
C4711       C  0.67206551  0.52619191  0.77921316     0.05890
C4712       C  0.66558649  0.99993722  0.77914880    -0.02660
Br4713     Br  0.67375647  0.98629339  0.80979942    -0.02350
H4714       H  0.64687896  0.96222200  0.75641960     0.09810
H4715       H  0.67248945  0.55434787  0.75376750     0.07820
Br4716     Br  0.64944094  0.52938146  0.69824976    -0.02780
C4717       C  0.56747969  0.54816835  0.68380977    -0.09420
C4718       C  0.58999092  0.57088681  0.67868725     0.06780
C4719       C  0.61204291  0.56920601  0.67036164    -0.03190
C4720       C  0.61006099  0.54517881  0.66329610    -0.07630
C4721       C  0.58709033  0.52229808  0.66678110     0.05890
C4722       C  0.56603732  0.52403007  0.67850693    -0.02660
Br4723     Br  0.53385501  0.99425176  0.68497446    -0.02350
H4724       H  0.55038313  0.54898543  0.69002983     0.09810
H4725       H  0.62666318  0.54441726  0.65496553     0.07820
Br4726     Br  0.64544038  0.59922126  0.66789792    -0.02780
C4727       C  0.60246665  0.80963259  0.59723880    -0.09420
C4728       C  0.57887073  0.80986827  0.59734319     0.06780
C4729       C  0.55590174  0.78674659  0.60150595    -0.03190
C4730       C  0.55705884  0.76488418  0.60796086    -0.07630
C4731       C  0.58085493  0.76510619  0.60959018     0.05890
C4732       C  0.60354591  0.78749285  0.60298362    -0.02660
Br4733     Br  0.63698297  0.78993983  0.60428072    -0.02350
H4734       H  0.62039103  0.82724525  0.59464487     0.09810
H4735       H  0.53927594  0.74768768  0.61199725     0.07820
Br4736     Br  0.52238708  0.78432490  0.59898943    -0.02780
C4737       C  0.68312893  0.89064109  0.57420351    -0.09420
C4738       C  0.68248638  0.91198070  0.58835882     0.06780
C4739       C  0.70653376  0.93349316  0.59866275    -0.03190
C4740       C  0.72955426  0.93268554  0.59667141    -0.07630
C4741       C  0.73009120  0.91058329  0.58541508     0.05890
C4742       C  0.70669377  0.88979363  0.57268209    -0.02660
Br4743     Br  0.70548802  0.85942653  0.55462503    -0.02350
H4744       H  0.66513849  0.87400702  0.56576886     0.09810
H4745       H  0.74731182  0.94937349  0.60559700     0.07820
Br4746     Br  0.71031228  0.96493640  0.61713924    -0.02780
C4747       C  0.94857645  0.92182725  0.68231366    -0.09420
C4748       C  0.94311341  0.93313739  0.66090068     0.06780
C4749       C  0.96181667  0.94551474  0.64150698    -0.03190
C4750       C  0.98454198  0.94417924  0.64196213    -0.07630
C4751       C  0.98909981  0.93089979  0.66174417     0.05890
C4752       C  0.97162953  0.92063704  0.68283893    -0.02660
Br4753     Br  0.97684723  0.90214811  0.71027752    -0.02350
H4754       H  0.93407495  0.91213271  0.69716447     0.09810
H4755       H  0.99818782  0.95244668  0.62590825     0.07820
Br4756     Br  0.95629049  0.96280071  0.61269860    -0.02780
C4757       C  0.53229240  0.64552360  0.51110224    -0.09420
C4758       C  0.52849084  0.65905970  0.53401221     0.06780
C4759       C  0.00465033  0.65892174  0.53570436    -0.03190
C4760       C  0.98425708  0.64346965  0.51610771    -0.07630
C4761       C  0.98728942  0.62812938  0.99448473     0.05890
C4762       C  0.51202571  0.63049044  0.99111360    -0.02660
Br4763     Br  0.51956283  0.61485615  0.95893588    -0.02350
H4764       H  0.55047835  0.64532726  0.50966861     0.09810
H4765       H  0.96587233  0.64320684  0.51790984     0.07820
Br4766     Br  0.99864633  0.67809158  0.56590216    -0.02780
C4767       C  0.96550963  0.63029756  0.75925258    -0.09420
C4768       C  0.97309304  0.64036484  0.78716080     0.06780
C4769       C  0.99918631  0.66002938  0.79355798    -0.03190
C4770       C  0.51758914  0.66723236  0.77305044    -0.07630
C4771       C  0.51043384  0.65568775  0.74564267     0.05890
C4772       C  0.98388167  0.63806976  0.73855752    -0.02660
Br4773     Br  0.97213586  0.62308593  0.70110242    -0.02350
H4774       H  0.94574161  0.61506406  0.75382151     0.09810
H4775       H  0.53771805  0.68135769  0.77873357     0.07820
Br4776     Br  0.51089003  0.67673064  0.83063073    -0.02780
C4777       C  0.86228257  0.97977887  0.97532773    -0.09420
C4778       C  0.85607062  0.49976017  0.97746268     0.06780
C4779       C  0.83564501  0.49668692  0.49469672    -0.03190
C4780       C  0.82385299  0.97559942  0.51090854    -0.07630
C4781       C  0.83142430  0.95658754  0.51013871     0.05890
C4782       C  0.85038617  0.95860417  0.49130893    -0.02660
Br4783     Br  0.86257383  0.93418556  0.48908911    -0.02350
H4784       H  0.87717397  0.98089700  0.96160260     0.09810
H4785       H  0.81031154  0.97532981  0.52609349     0.07820
Br4786     Br  0.82546260  0.52257124  0.49975622    -0.02780
C4787       C  0.82910253  0.98411984  0.75212246    -0.09420
C4788       C  0.84543860  0.99148769  0.72989206     0.06780
C4789       C  0.86525629  0.51738386  0.73025261    -0.03190
C4790       C  0.86982803  0.53498915  0.75355695    -0.07630
C4791       C  0.85475962  0.52724886  0.77687719     0.05890
C4792       C  0.83344621  0.50164782  0.77543212    -0.02660
Br4793     Br  0.80931325  0.48904715  0.80433547    -0.02350
H4794       H  0.81325190  0.96444488  0.75164767     0.09810
H4795       H  0.88611619  0.55441867  0.75395587     0.07820
Br4796     Br  0.88653026  0.52965691  0.69935754    -0.02780
C4797       C  0.53758769  0.55014218  0.88463856    -0.09420
C4798       C  0.55257036  0.55801943  0.90978247     0.06780
C4799       C  0.54081266  0.55943894  0.93479177    -0.03190
C4800       C  0.51618081  0.55743803  0.93353507    -0.07630
C4801       C  0.50315174  0.55368667  0.90775049     0.05890
C4802       C  0.51288420  0.54741548  0.88354828    -0.02660
Br4803     Br  0.49339406  0.53511103  0.84840686    -0.02350
H4804       H  0.54548115  0.54687075  0.86548209     0.09810
H4805       H  0.50809709  0.56060062  0.95255788     0.07820
Br4806     Br  0.55770014  0.56581283  0.97087954    -0.02780
C4807       C  0.78967705  0.60453710  0.85585524    -0.09420
C4808       C  0.76652727  0.58079004  0.85456818     0.06780
C4809       C  0.76752362  0.55771950  0.85154150    -0.03190
C4810       C  0.79150787  0.55863069  0.85180037    -0.07630
C4811       C  0.81466483  0.58232854  0.85515582     0.05890
C4812       C  0.81376716  0.60546312  0.85645901    -0.02660
Br4813     Br  0.84455381  0.63855993  0.86306976    -0.02350
H4814       H  0.78905530  0.62237839  0.85860781     0.09810
H4815       H  0.79209622  0.54076472  0.85077707     0.07820
Br4816     Br  0.73672218  0.52453644  0.84819193    -0.02780
C4817       C  0.96463611  0.81172965  0.50858046    -0.09420
C4818       C  0.97183666  0.81290124  0.98104030     0.06780
C4819       C  0.49852030  0.82138603  0.97641368    -0.03190
C4820       C  0.51774664  0.83423311  0.99823264    -0.07630
C4821       C  0.51072687  0.83690205  0.52543319     0.05890
C4822       C  0.98374383  0.82254535  0.53064902    -0.02660
Br4823     Br  0.97156483  0.81671835  0.56744515    -0.02350
H4824       H  0.94436188  0.80421206  0.51300054     0.09810
H4825       H  0.53808720  0.84344734  0.99355763     0.07820
Br4826     Br  0.50981326  0.81806788  0.93985181    -0.02780
C4827       C  0.99386402  0.84415483  0.76376571    -0.09420
C4828       C  0.98960370  0.86222674  0.78001392     0.06780
C4829       C  0.00430103  0.88850300  0.77525127    -0.03190
C4830       C  0.52173748  0.89584813  0.75415897    -0.07630
C4831       C  0.52512169  0.87775360  0.73680726     0.05890
C4832       C  0.51128675  0.85151818  0.74234924    -0.02660
Br4833     Br  0.51455084  0.82428132  0.72203448    -0.02350
H4834       H  0.98315181  0.82397483  0.76733507     0.09810
H4835       H  0.53228564  0.91612423  0.75100301     0.07820
Br4836     Br  0.00260936  0.91617638  0.79659486    -0.02780
C4837       C  0.90186498  0.93649157  0.87100633    -0.09420
C4838       C  0.92485528  0.93841960  0.88111212     0.06780
C4839       C  0.94185249  0.95912234  0.90031375    -0.03190
C4840       C  0.93655248  0.97898218  0.90729971    -0.07630
C4841       C  0.91340424  0.97700929  0.89702003     0.05890
C4842       C  0.89529849  0.95482512  0.88016303    -0.02660
Br4843     Br  0.86041291  0.94710789  0.87124351    -0.02350
H4844       H  0.88768724  0.91925537  0.85830122     0.09810
H4845       H  0.95050493  0.49591923  0.92047904     0.07820
Br4846     Br  0.97099022  0.95998682  0.91905258    -0.02780
C4847       C  0.91168506  0.69180176  0.90356977    -0.09420
C4848       C  0.91385856  0.68082329  0.87744948     0.06780
C4849       C  0.91380415  0.69244751  0.85343723    -0.03190
C4850       C  0.91220397  0.71495654  0.85607156    -0.07630
C4851       C  0.91116659  0.72656434  0.88234826     0.05890
C4852       C  0.91061429  0.71454656  0.90630528    -0.02660
Br4853     Br  0.91025113  0.72859554  0.94353403    -0.02350
H4854       H  0.91122649  0.68284013  0.92225802     0.09810
H4855       H  0.91245243  0.72379665  0.83735413     0.07820
Br4856     Br  0.91785901  0.67997048  0.81685135    -0.02780
C4857       C  0.54018708  0.93569002  0.88895622    -0.09420
C4858       C  0.51859566  0.93536251  0.87633757     0.06780
C4859       C  0.51948768  0.95870228  0.87181011    -0.03190
C4860       C  0.54103816  0.98181452  0.88235041    -0.07630
C4861       C  0.56180146  0.98174158  0.89627463     0.05890
C4862       C  0.56166654  0.95862838  0.89889650    -0.02660
Br4863     Br  0.59125727  0.95748707  0.91352436    -0.02350
H4864       H  0.54011700  0.91786740  0.89168200     0.09810
H4865       H  0.54235391  0.49992148  0.87821500     0.07820
Br4866     Br  0.99294703  0.96062988  0.85084398    -0.02780
C4867       C  0.79017713  0.68137262  0.88088295    -0.09420
C4868       C  0.76719218  0.68176503  0.87495381     0.06780
C4869       C  0.76780081  0.70535374  0.87360455    -0.03250
C4870       C  0.79142028  0.72826691  0.87777635    -0.07630
C4871       C  0.81456619  0.72808518  0.88390634     0.05890
C4872       C  0.81385626  0.70436799  0.88546242    -0.02660
Br4873     Br  0.84441748  0.70205380  0.89269848    -0.02350
H4874       H  0.78955760  0.66317523  0.88276566     0.09810
H4875       H  0.79172587  0.74637508  0.87628767     0.07820
Br4876     Br  0.73677204  0.70707039  0.86644081    -0.02780
C4877       C  0.84732529  0.81026376  0.50822923    -0.09420
C4878       C  0.84267201  0.81346320  0.98088282     0.06780
C4879       C  0.82469844  0.82227004  0.97631991    -0.03190
C4880       C  0.81703215  0.83334803  0.49859081    -0.07630
C4881       C  0.82529421  0.83403400  0.52598003     0.05890
C4882       C  0.83780128  0.81939913  0.53055892    -0.02660
Br4883     Br  0.84228838  0.81098602  0.56676946    -0.02350
H4884       H  0.85982544  0.80235433  0.51245345     0.09810
H4885       H  0.80610382  0.84289838  0.49423500     0.07820
Br4886     Br  0.81155441  0.82129552  0.93962842    -0.02780
C4887       C  0.84822760  0.85392199  0.73587598    -0.09420
C4888       C  0.85374733  0.87974849  0.73785228     0.06780
C4889       C  0.86799885  0.89631021  0.76178045    -0.03190
C4890       C  0.87725687  0.88719654  0.78224596    -0.07630
C4891       C  0.87230914  0.86162031  0.77979202     0.05890
C4892       C  0.85733350  0.84481198  0.75648574    -0.02660
Br4893     Br  0.85066149  0.80993728  0.75038403    -0.02350
H4894       H  0.83768042  0.84091766  0.71759873     0.09810
H4895       H  0.88826009  0.90016902  0.80038688     0.07820
Br4896     Br  0.87473108  0.93122468  0.76855476    -0.02780
loop_ 
_geom_bond_atom_site_label_1 
_geom_bond_atom_site_label_2 
_geom_bond_distance 
_geom_bond_site_symmetry_2 
_ccdc_geom_bond_type 
O1          Zr13   2.450       .  S
O1            C3   1.289       .  A
O2          Zr39   2.419       .  S
O2            C3   1.286       .  A
C3          C607   1.479       .  S
O4          Zr16   2.373       .  S
O4            C6   1.275       .  A
O5          Zr40   2.533       .  S
O5            C6   1.307       .  A
C6          C594   1.498       .  S
O7          Zr16   2.375       .  S
O7            C9   1.276       .  A
O8          Zr39   2.397       .  S
O8            C9   1.280       .  A
C9          C554   1.418       .  S
O10         Zr13   2.410       .  S
O10          C12   1.284       .  A
O11         Zr40   2.440       .  S
O11          C12   1.291       .  A
C12         C587   1.467       .  S
Zr13         O14   2.435       .  S
Zr13         O15   2.436       .  S
Zr13         O19   2.358       .  S
Zr13         O20   2.376       .  S
Zr13         O43   2.364       .  S
Zr13         O45   2.365       .  S
O14          H57   0.990       .  S
O15          H56   0.990       .  S
O15          H60   0.990       .  S
Zr16         O17   2.432       .  S
Zr16         O18   2.434       .  S
Zr16         O20   2.356       .  S
Zr16         O19   2.360       .  S
Zr16         O44   2.345       .  S
Zr16         O46   2.373       .  S
O17          H58   0.989       .  S
O17          H61   0.990       .  S
O18          H51   0.990       .  S
O19         Zr39   2.370       .  S
O20         Zr40   2.398       .  S
O20          H47   0.965       .  S
O21         Zr33   2.404       .  S
O21          C23   1.283       .  A
O22         Zr40   2.425       .  S
O22          C23   1.288       .  A
C23         C567   1.470       .  S
O24         Zr36   2.378       .  S
O24          C26   1.278       .  A
O25         Zr39   2.399       .  S
O25          C26   1.280       .  A
C26        C3022   1.450       .  S
O27         Zr36   2.361       .  S
O27          C29   1.272       .  A
O28         Zr40   2.537       .  S
O28          C29   1.308       .  A
C29         C534   1.498       .  S
O30         Zr33   2.455       .  S
O30          C32   1.291       .  A
O31         Zr39   2.405       .  S
O31          C32   1.282       .  A
C32         C544   1.485       .  S
Zr33         O34   2.437       .  S
Zr33         O35   2.434       .  S
Zr33         O41   2.378       .  S
Zr33         O42   2.347       .  S
Zr33         O45   2.362       .  S
Zr33         O43   2.369       .  S
O34          H54   0.990       .  S
O34          H59   0.990       .  S
O35          H55   0.990       .  S
Zr36         O37   2.432       .  S
Zr36         O38   2.435       .  S
Zr36         O42   2.355       .  S
Zr36         O41   2.350       .  S
Zr36         O46   2.371       .  S
Zr36         O44   2.327       .  S
O37        H2501   0.990       .  S
O38          H52   0.990       .  S
O38          H62   0.990       .  S
Zr39         O42   2.372       .  S
Zr39         O44   2.378       .  S
Zr39         O45   2.376       .  S
Zr40         O41   2.402       .  S
Zr40         O43   2.415       .  S
Zr40         O46   2.377       .  S
O41          H49   0.965       .  S
O44          H48   0.965       .  S
O45          H50   0.966       .  S
H53        O2485   0.990       .  S
O63         Zr75   2.403       .  S
O63          C65   1.282       .  A
O64        Zr101   2.421       .  S
O64          C65   1.286       .  A
C65         C564   1.467       .  S
O66         Zr78   2.428       .  S
O66          C68   1.286       .  A
O67        Zr102   2.425       .  S
O67          C68   1.286       .  A
C68        C2965   1.474       .  S
O69         Zr78   2.401       .  S
O69          C71   1.280       .  A
O70        Zr101   2.494       .  S
O70          C71   1.299       .  A
C71         C484   1.490       .  S
O72         Zr75   2.397       .  S
O72          C74   1.279       .  A
O73        Zr102   2.472       .  S
O73          C74   1.296       .  A
C74         C477   1.469       .  S
Zr75         O76   2.434       .  S
Zr75         O77   2.435       .  S
Zr75         O81   2.373       .  S
Zr75         O82   2.367       .  S
Zr75        O105   2.386       .  S
Zr75        O107   2.357       .  S
O76         H119   0.990       .  S
O77         H118   0.990       .  S
O77         H122   0.990       .  S
Zr78         O79   2.437       .  S
Zr78         O80   2.433       .  S
Zr78         O82   2.349       .  S
Zr78         O81   2.370       .  S
Zr78        O106   2.370       .  S
Zr78        O108   2.347       .  S
O79         H120   0.990       .  S
O79        H2571   0.990       .  S
O80         H113   0.990       .  S
O81        Zr101   2.382       .  S
O82        Zr102   2.383       .  S
O82         H109   0.964       .  S
O83         Zr95   2.490       .  S
O83          C85   1.295       .  A
O84        Zr102   2.460       .  S
O84          C85   1.294       .  A
C85         C494   1.510   1_545  S
O86         Zr98   2.403       .  S
O86          C88   1.271       .  A
O87        Zr101   2.461       .  S
O87          C88   1.288       .  A
C88         C507   1.489       .  S
O89         Zr98   2.383       .  S
O89          C91   1.278   1_545  A
O90        Zr102   2.390       .  S
O90          C91   1.281   1_545  A
C91        C1781   1.440       .  S
O92         Zr95   2.440       .  S
O92          C94   1.289       .  A
O93        Zr101   2.420       .  S
O93          C94   1.287       .  A
C94         C527   1.462       .  S
Zr95         O96   2.437       .  S
Zr95         O97   2.434       .  S
Zr95        O103   2.358       .  S
Zr95        O104   2.380       .  S
Zr95        O107   2.378       .  S
Zr95        O105   2.377       .  S
O96         H116   0.990       .  S
O96         H121   0.990       .  S
O97         H117   0.990       .  S
Zr98        O100   2.435       .  S
Zr98       O1323   2.428   1_545  S
Zr98        O104   2.338       .  S
Zr98        O103   2.354       .  S
Zr98        O108   2.359       .  S
Zr98        O106   2.362       .  S
O99       Zr1322   2.428       .  S
O99        H1339   0.990       .  S
O100        H114   0.990       .  S
O100        H124   0.990       .  S
Zr101       O104   2.395       .  S
Zr101       O106   2.385       .  S
Zr101       O107   2.413       .  S
Zr102       O103   2.395       .  S
Zr102       O105   2.384       .  S
Zr102       O108   2.388       .  S
O103        H111   0.964       .  S
O106        H110   0.966       .  S
O107        H112   0.966       .  S
H115       O1323   0.990       .  S
H123       O2527   0.990       .  S
O125       Zr137   2.416       .  S
O125        C127   1.284       .  A
O126       Zr163   2.423       .  S
O126        C127   1.285       .  A
C127       C2915   1.457   1_455  S
O128       Zr140   2.416       .  S
O128        C130   1.283       .  A
O129       Zr164   2.492       .  S
O129        C130   1.300       .  A
C130        C444   1.489       .  S
O131       Zr140   2.439       .  S
O131        C133   1.285       .  A
O132       Zr163   2.414       .  S
O132        C133   1.287       .  A
C133        C547   1.493       .  S
O134       Zr137   2.409       .  S
O134        C136   1.282       .  A
O135       Zr164   2.526       .  S
O135        C136   1.307       .  A
C136        C537   1.509       .  S
Zr137       O139   2.435       .  S
Zr137      O2586   2.430   1_455  S
Zr137       O143   2.360       .  S
Zr137       O144   2.370       .  S
Zr137       O167   2.369       .  S
Zr137       O169   2.361       .  S
O138      Zr2585   2.430       .  S
O138        H181   0.990       .  S
O139        H180   0.990       .  S
O139        H184   0.990   1_455  S
Zr140       O141   2.436       .  S
Zr140       O142   2.435       .  S
Zr140       O144   2.367       .  S
Zr140       O143   2.358       .  S
Zr140       O168   2.367       .  S
Zr140       O170   2.373       .  S
O141        H182   0.990       .  S
O141        H185   0.990       .  S
O142        H175   0.990       .  S
O143       Zr163   2.375       .  S
O144       Zr164   2.403       .  S
O144        H171   0.965       .  S
O145       Zr157   2.390       .  S
O145        C147   1.278       .  A
O146       Zr164   2.525       .  S
O146        C147   1.307       .  A
C147        C417   1.492       .  S
O148       Zr160   2.438       .  S
O148        C150   1.286       .  A
O149       Zr163   2.436       .  S
O149        C150   1.289       .  A
C150        C424   1.471       .  S
O151       Zr160   2.428       .  S
O151        C153   1.286       .  A
O152       Zr164   2.489       .  S
O152        C153   1.299       .  A
C153        C454   1.503       .  S
O154       Zr157   2.471       .  S
O154        C156   1.294       .  A
O155       Zr163   2.418       .  S
O155        C156   1.284       .  A
C156       C1661   1.486       .  S
Zr157       O158   2.436       .  S
Zr157       O159   2.434       .  S
Zr157       O165   2.383       .  S
Zr157       O166   2.348       .  S
Zr157       O169   2.342       .  S
Zr157       O167   2.395       .  S
O158        H178   0.990       .  S
O158       H1407   0.990       .  S
O159        H179   0.990       .  S
Zr160       O161   2.432       .  S
Zr160       O162   2.434       .  S
Zr160       O166   2.358       .  S
Zr160       O165   2.373       .  S
Zr160       O170   2.369       .  S
Zr160       O168   2.373       .  S
O161        H177   0.990       .  S
O162        H176   0.990       .  S
O162        H186   0.990       .  S
Zr163       O166   2.367       .  S
Zr163       O168   2.385       .  S
Zr163       O169   2.381       .  S
Zr164       O165   2.414       .  S
Zr164       O167   2.405       .  S
Zr164       O170   2.407       .  S
O165        H173   0.966       .  S
O168        H172   0.966       .  S
O169        H174   0.965       .  S
H183       O1382   0.990       .  S
O187       Zr199   2.407       .  S
O187        C189   1.280       .  A
O188       Zr225   2.482       .  S
O188        C189   1.297       .  A
C189        C397   1.479       .  S
O190       Zr202   2.404       .  S
O190        C192   1.279       .  A
O191       Zr226   2.460       .  S
O191        C192   1.294       .  A
C192        C407   1.463       .  S
O193       Zr202   2.410       .  S
O193        C195   1.282       .  A
O194       Zr225   2.427       .  S
O194        C195   1.287       .  A
C195        C584   1.453       .  S
O196       Zr199   2.442       .  S
O196        C198   1.290       .  A
O197       Zr226   2.410       .  S
O197        C198   1.282       .  A
C198        C514   1.475       .  S
Zr199       O200   2.435       .  S
Zr199       O201   2.437       .  S
Zr199       O205   2.373       .  S
Zr199       O206   2.347       .  S
Zr199       O229   2.343       .  S
Zr199       O231   2.376       .  S
O200        H243   0.990       .  S
O201        H242   0.990       .  S
O201        H246   0.990       .  S
Zr202       O203   2.437       .  S
Zr202       O204   2.435       .  S
Zr202       O206   2.369       .  S
Zr202       O205   2.374       .  S
Zr202       O230   2.359       .  S
Zr202       O232   2.388       .  S
O203        H244   0.990       .  S
O203        H247   0.990       .  S
O204        H237   0.990       .  S
O205       Zr225   2.385       .  S
O206       Zr226   2.386       .  S
O206        H233   0.964       .  S
O207       Zr219   2.377       .  S
O207        C209   1.274       .  A
O208       Zr226   2.398       .  S
O208        C209   1.280       .  A
C209       C1801   1.424   1_545  S
O210       Zr222   2.443       .  S
O210        C212   1.290       .  A
O211       Zr225   2.419       .  S
O211        C212   1.287       .  A
C212        C524   1.464       .  S
O213       Zr222   2.481       .  S
O213        C215   1.294       .  A
O214       Zr226   2.456       .  S
O214        C215   1.294       .  A
C215        C414   1.511       .  S
O216       Zr219   2.403       .  S
O216        C218   1.271       .  A
O217       Zr225   2.460       .  S
O217        C218   1.288       .  A
C218        C427   1.487       .  S
Zr219       O221   2.436       .  S
Zr219      O1444   2.437   1_545  S
Zr219       O227   2.364       .  S
Zr219       O228   2.343       .  S
Zr219       O231   2.358       .  S
Zr219       O229   2.354       .  S
O220      Zr1443   2.437       .  S
O220        H240   0.990       .  S
O220        H245   0.990       .  S
O221        H241   0.990       .  S
Zr222       O223   2.433       .  S
Zr222       O224   2.434       .  S
Zr222       O228   2.374       .  S
Zr222       O227   2.365       .  S
Zr222       O232   2.377       .  S
Zr222       O230   2.381       .  S
O223        H239   0.990       .  S
O224        H238   0.990       .  S
O224        H248   0.990       .  S
Zr225       O228   2.393       .  S
Zr225       O230   2.408       .  S
Zr225       O231   2.389       .  S
Zr226       O227   2.393       .  S
Zr226       O229   2.384       .  S
Zr226       O232   2.382       .  S
O227        H235   0.965       .  S
O230        H234   0.966       .  S
O231        H236   0.965       .  S
O249       Zr261   2.469       .  S
O249        C251   1.293       .  A
O250       Zr287   2.454       .  S
O250        C251   1.294       .  A
C251        C487   1.490       .  S
O252       Zr264   2.377       .  S
O252        C254   1.275       .  A
O253       Zr288   2.457       .  S
O253        C254   1.291       .  A
C254        C474   1.459       .  S
O255       Zr264   2.383       .  S
O255        C257   1.279       .  A
O256       Zr287   2.462       .  S
O256        C257   1.291       .  A
C257       C2822   1.484   1_455  S
O258       Zr261   2.488       .  S
O258        C260   1.298       .  A
O259       Zr288   2.432       .  S
O259        C260   1.288       .  A
C260        C447   1.496       .  S
Zr261       O262   2.434       .  S
Zr261       O263   2.434       .  S
Zr261       O267   2.373       .  S
Zr261       O268   2.377       .  S
Zr261       O291   2.371       .  S
Zr261       O293   2.396       .  S
O262        H305   0.990       .  S
O263        H304   0.990       .  S
O263        H308   0.990       .  S
Zr264       O266   2.435       .  S
Zr264      O2713   2.436   1_455  S
Zr264       O268   2.362       .  S
Zr264       O267   2.345       .  S
Zr264       O292   2.356       .  S
Zr264       O294   2.360       .  S
O265      Zr2712   2.436       .  S
O265        H306   0.990       .  S
O265        H309   0.990       .  S
O266        H299   0.990       .  S
O267       Zr287   2.387       .  S
O268       Zr288   2.392       .  S
O268        H295   0.966       .  S
O269       Zr281   2.482       .  S
O269        C271   1.295       .  A
O270       Zr288   2.415       .  S
O270        C271   1.284       .  A
C271        C384   1.483       .  S
O272       Zr284   2.393       .  S
O272        C274   1.279       .  A
O273       Zr287   2.477       .  S
O273        C274   1.296       .  A
C274        C434   1.484       .  S
O275       Zr284   2.377       .  S
O275        C277   1.276       .  A
O276       Zr288   2.458       .  S
O276        C277   1.291       .  A
C277        C404   1.464       .  S
O278       Zr281   2.468       .  S
O278        C280   1.293       .  A
O279       Zr287   2.440       .  S
O279        C280   1.292       .  A
C280        C394   1.487       .  S
Zr281       O282   2.437       .  S
Zr281       O283   2.434       .  S
Zr281       O289   2.379       .  S
Zr281       O290   2.368       .  S
Zr281       O293   2.392       .  S
Zr281       O291   2.372       .  S
O282        H302   0.990       .  S
O282        H307   0.990       .  S
O283        H303   0.990       .  S
Zr284       O285   2.432       .  S
Zr284       O286   2.436       .  S
Zr284       O290   2.341       .  S
Zr284       O289   2.362       .  S
Zr284       O294   2.361       .  S
Zr284       O292   2.357       .  S
O285        H301   0.990       .  S
O286        H300   0.990       .  S
O286        H310   0.990       .  S
Zr287       O290   2.380       .  S
Zr287       O292   2.379       .  S
Zr287       O293   2.423       .  S
Zr288       O289   2.394       .  S
Zr288       O291   2.402       .  S
Zr288       O294   2.375       .  S
O289        H297   0.966       .  S
O292        H296   0.966       .  S
O293        H298   0.966       .  S
O311       Zr323   2.450       .  S
O311        C313   1.288       .  A
O312       Zr349   2.438       .  S
O312        C313   1.289       .  A
C313        C504   1.477       .  S
O314       Zr326   2.412       .  S
O314        C316   1.283       .  A
O315       Zr350   2.488       .  S
O315        C316   1.299       .  A
C316        C387   1.481       .  S
O317       Zr326   2.451       .  S
O317        C319   1.290       .  A
O318       Zr349   2.422       .  S
O318        C319   1.286       .  A
C319        C604   1.487       .  S
O320       Zr323   2.427       .  S
O320        C322   1.288       .  A
O321       Zr350   2.476       .  S
O321        C322   1.295       .  A
C322        C457   1.502       .  S
Zr323       O324   2.434       .  S
Zr323       O325   2.435       .  S
Zr323       O329   2.376       .  S
Zr323       O330   2.359       .  S
Zr323       O353   2.375       .  S
Zr323       O355   2.359       .  S
O324        H367   0.990       .  S
O325        H366   0.990       .  S
O325        H370   0.990       .  S
Zr326       O327   2.434       .  S
Zr326       O328   2.435       .  S
Zr326       O330   2.379       .  S
Zr326       O329   2.372       .  S
Zr326       O354   2.355       .  S
Zr326       O356   2.379       .  S
O327        H368   0.989       .  S
O327        H371   0.990       .  S
O328        H361   0.990       .  S
O329       Zr349   2.379       .  S
O330       Zr350   2.416       .  S
O330        H357   0.964       .  S
O331       Zr343   2.381       .  S
O331        C333   1.276       .  A
O332       Zr350   2.536       .  S
O332        C333   1.309       .  A
C333        C497   1.495       .  S
O334       Zr346   2.420       .  S
O334        C336   1.285       .  A
O335       Zr349   2.414       .  S
O335        C336   1.283       .  A
C336        C464   1.455       .  S
O337       Zr346   2.409       .  S
O337        C339   1.282       .  A
O338       Zr350   2.513       .  S
O338        C339   1.305       .  A
C339        C597   1.508       .  S
O340       Zr343   2.447       .  S
O340        C342   1.290       .  A
O341       Zr349   2.407       .  S
O341        C342   1.283       .  A
C342       C1601   1.477       .  S
Zr343       O344   2.436       .  S
Zr343       O345   2.432       .  S
Zr343       O351   2.385       .  S
Zr343       O352   2.341       .  S
Zr343       O355   2.350       .  S
Zr343       O353   2.375       .  S
O344        H364   0.990       .  S
O344        H369   0.990       .  S
O345        H365   0.990       .  S
Zr346       O347   2.434       .  S
Zr346       O348   2.432       .  S
Zr346       O352   2.357       .  S
Zr346       O351   2.369       .  S
Zr346       O356   2.367       .  S
Zr346       O354   2.354       .  S
O347        H363   0.990       .  S
O348        H362   0.989       .  S
O348        H372   0.990       .  S
Zr349       O352   2.381       .  S
Zr349       O354   2.383       .  S
Zr349       O355   2.379       .  S
Zr350       O351   2.405       .  S
Zr350       O353   2.403       .  S
Zr350       O356   2.404       .  S
O351        H359   0.966       .  S
O354        H358   0.965       .  S
O355        H360   0.965       .  S
C373        C374   1.407       .  A
C373        C378   1.384       .  A
C373        H380   1.084       .  S
C374       C2705   1.484       .  S
C374        C375   1.409       .  A
C375        C376   1.407       .  A
C375      Br2830   1.913       .  S
C376        C377   1.411       .  A
C376       H1605   1.083       .  S
C377       C1566   1.477   1_545  S
C377        C378   1.407       .  A
C378       Br379   1.923       .  S
H381       C1600   1.083       .  S
Br382      C2823   1.913   1_455  S
C383        C384   1.398       .  A
C383        C388   1.396       .  A
C383        H390   1.084       .  S
C384        C385   1.415       .  A
C385        C386   1.411       .  A
C385       Br392   1.917       .  S
C386        C387   1.404       .  A
C386        H391   1.083       .  S
C387        C388   1.413       .  A
C388       Br389   1.920       .  S
C393        C394   1.404       .  A
C393        C398   1.401       .  A
C393        H400   1.083       .  S
C394        C395   1.410       .  A
C395        C396   1.409       .  A
C395       Br402   1.917       .  S
C396        C397   1.408       .  A
C396        H401   1.084       .  S
C397        C398   1.409       .  A
C398       Br399   1.920       .  S
C403        C404   1.400       .  A
C403       C1020   1.400   1_554  A
C403        H410   1.084       .  S
C404        C405   1.412       .  A
C405        C406   1.393       .  A
C405       Br412   1.921       .  S
C406       C1019   1.397   1_554  A
C406        H411   1.084       .  S
C407        C408   1.411       .  A
C407       C1018   1.397       .  A
C408       C1015   1.400       .  A
C408       Br409   1.917       .  S
C413       C1638   1.409       .  A
C413       C1030   1.406       .  A
C413        H420   1.083       .  S
C414       C1637   1.409   1_545  A
C414       C1027   1.418   1_545  A
C415       C1026   1.418   1_565  A
C415       C1640   1.416   1_556  A
C415       Br422   1.919   1_565  S
C416        C417   1.410       .  A
C416       C1639   1.416   1_554  A
C416        H421   1.083       .  S
C417        C418   1.411   1_554  A
C418       C1025   1.406       .  A
C418       Br419   1.919       .  S
C423        C424   1.395       .  A
C423        C428   1.399       .  A
C423        H430   1.084       .  S
C424       C1649   1.406       .  A
C425        C426   1.400       .  A
C425       C1648   1.406   1_545  A
C425       Br432   1.909       .  S
C426        C427   1.404       .  A
C426        H431   1.083       .  S
C427       C1652   1.422   1_545  A
C428       C1651   1.422       .  A
C428       Br429   1.921       .  S
C433        C434   1.400       .  A
C433        C438   1.406       .  A
C433        H440   1.079       .  S
C434        C435   1.414       .  A
C435        C436   1.396       .  A
C435       Br442   1.920       .  S
C436        C437   1.400       .  A
C436        H441   1.083       .  S
C437       C1380   1.486   1_545  S
C437        C438   1.416       .  A
C438      Br1663   1.913   1_545  S
Br439      C1662   1.913       .  S
C443        C444   1.403       .  A
C443        C448   1.409       .  A
C443        H450   1.084       .  S
C444        C445   1.414       .  A
C445        C446   1.405       .  A
C445       Br452   1.918       .  S
C446        C447   1.403       .  A
C446        H451   1.084       .  S
C447        C448   1.416       .  A
C448       Br449   1.910       .  S
C453        C454   1.413       .  A
C453        C458   1.421       .  A
C453        H460   1.083       .  S
C454        C455   1.417       .  A
C455        C456   1.389       .  A
C455       Br462   1.919       .  S
C456        C457   1.402       .  A
C456        H461   1.084       .  S
C457        C458   1.417       .  A
C458       Br459   1.915       .  S
C463        C464   1.403       .  A
C463        C468   1.400       .  A
C463        H470   1.084       .  S
C464        C465   1.404       .  A
C465        C466   1.386       .  A
C465       Br472   1.923       .  S
C466        C467   1.400       .  A
C466        H471   1.085       .  S
C467       C2575   1.457       .  S
C467        C468   1.406       .  A
C468       Br469   1.915       .  S
C473        C474   1.400       .  A
C473       C1090   1.399   1_554  A
C473        H480   1.084       .  S
C474       C2923   1.409       .  A
C475        C476   1.396       .  A
C475       C2922   1.409       .  A
C475       Br482   1.920       .  S
C476       C1089   1.402   1_554  A
C476        H481   1.084       .  S
C477       C1088   1.402       .  A
C477       C2926   1.410       .  A
C478       C1085   1.399       .  A
C478       C2925   1.410   1_455  A
C478       Br479   1.912       .  S
C483        C484   1.404       .  A
C483        C488   1.410       .  A
C483        H490   1.083       .  S
C484        C485   1.417       .  A
C485       C2934   1.405       .  A
C485      Br2940   1.920       .  S
C486        C487   1.400       .  A
C486       C2933   1.405   1_455  A
C486        H491   1.083       .  S
C487       C2936   1.414   1_455  A
C488       C2935   1.414       .  A
C488       Br489   1.913       .  S
Br492      C2933   1.920   1_455  S
C493       C1718   1.410       .  A
C493       C1110   1.411       .  A
C493        H500   1.084       .  S
C494       C1717   1.410       .  A
C494       C1107   1.415       .  A
C495       C1106   1.415       .  A
C495       C1720   1.415   1_556  A
C495       Br502   1.918   1_566  S
C496        C497   1.412       .  A
C496       C1719   1.415   1_554  A
C496        H501   1.084       .  S
C497        C498   1.412   1_554  A
C498       C1105   1.411       .  A
C498       Br499   1.918       .  S
C503        C504   1.397       .  A
C503       C1732   1.401       .  A
C503        H510   1.084       .  S
C504       C1729   1.408       .  A
C505        C506   1.401       .  A
C505       C1728   1.408   1_545  A
C505       Br512   1.909       .  S
C506        C507   1.404       .  A
C506        H511   1.083       .  S
C507        C508   1.422       .  A
C508       C1727   1.401   1_545  A
C508       Br509   1.922   1_545  S
C513        C514   1.402       .  A
C513        C518   1.388       .  A
C513        H520   1.084       .  S
C514        C515   1.414       .  A
C515        C516   1.403       .  A
C515       Br522   1.919       .  S
C516        C517   1.404       .  A
C516        H521   1.083       .  S
C517       C2516   1.474   1_455  S
C517        C518   1.408       .  A
C518       Br519   1.920   1_455  S
C523        C524   1.402       .  A
C523        C528   1.399       .  A
C523        H530   1.084       .  S
C524        C525   1.406       .  A
C525        C526   1.393       .  A
C525       Br532   1.915       .  S
C526        C527   1.400       .  A
C526        H531   1.084       .  S
C527        C528   1.408       .  A
C528       Br529   1.917       .  S
C533        C538   1.409       .  A
C533       C1146   1.396   1_554  A
C533        H540   1.083       .  S
C534       C1145   1.396       .  A
C534       C2983   1.425       .  A
C535        C536   1.409   1_655  A
C535       C2982   1.425       .  A
C535       Br542   1.920   1_655  S
C536       C1149   1.400       .  A
C536        H541   1.083       .  S
C537       C1148   1.400   1_554  A
C537       C2986   1.428   1_455  A
C538       C2985   1.428       .  A
C538       Br539   1.916       .  S
C543        C544   1.405       .  A
C543       C2996   1.403       .  A
C543        H550   1.083       .  S
C544        C545   1.414       .  A
C545       C2994   1.391       .  A
C545       Br552   1.920       .  S
C546        C547   1.405       .  A
C546       C2993   1.391       .  A
C546        H551   1.083       .  S
C547        C548   1.420       .  A
C548       C2991   1.403   1_455  A
C548       Br549   1.922       .  S
C553        C554   1.390       .  A
C553        C558   1.374       .  A
C553        H560   1.086       .  S
C554        C555   1.405       .  A
C555        C556   1.387       .  A
C555       Br562   1.920       .  S
C556        C557   1.400       .  A
C556       H1785   1.084       .  S
C557       C1315   1.440       .  S
C557        C558   1.407       .  A
C558       Br559   1.918       .  S
H561       C1780   1.084       .  S
C563        C564   1.408       .  A
C563        C568   1.389       .  A
C563        H570   1.084       .  S
C564        C565   1.405       .  A
C565        C566   1.392       .  A
C565       Br572   1.921       .  S
C566        C567   1.410       .  A
C566        H571   1.084       .  S
C567        C568   1.407       .  A
C568       Br569   1.924       .  S
C573        C574   1.404       .  A
C573        C578   1.376       .  A
C573        H580   1.084       .  S
C574       C2474   1.450   1_455  S
C574        C575   1.408       .  A
C575        C576   1.391       .  A
C575      Br3030   1.921   1_455  S
C576        C577   1.400       .  A
C576       H1805   1.084       .  S
C577       C1433   1.424       .  S
C577        C578   1.397       .  A
C578       Br579   1.920       .  S
H581       C1800   1.084       .  S
Br582      C3023   1.921       .  S
C583        C584   1.400       .  A
C583        C588   1.397       .  A
C583        H590   1.084       .  S
C584        C585   1.402       .  A
C585        C586   1.392       .  A
C585       Br592   1.920       .  S
C586        C587   1.405       .  A
C586        H591   1.084       .  S
C587        C588   1.408       .  A
C588       Br589   1.913       .  S
C593        C598   1.409       .  A
C593       C1206   1.397   1_554  A
C593        H600   1.083       .  S
C594        C595   1.424       .  A
C594       C1205   1.397       .  A
C595       C1208   1.407       .  A
C595       Br602   1.918       .  S
C596        C597   1.399   1_556  A
C596       C1207   1.407       .  A
C596        H601   1.083       .  S
C597        C598   1.427       .  A
C598       Br599   1.915       .  S
C603        C604   1.408       .  A
C603        C608   1.400       .  A
C603        H610   1.083       .  S
C604        C605   1.415       .  A
C605        C606   1.400       .  A
C605       Br612   1.922       .  S
C606        C607   1.404       .  A
C606        H611   1.084       .  S
C607        C608   1.409       .  A
C608       Br609   1.919       .  S
O613       Zr625   2.450       .  S
O613        C615   1.289       .  A
O614       Zr651   2.419       .  S
O614        C615   1.286       .  A
C615       C1219   1.479       .  S
O616       Zr628   2.373       .  S
O616        C618   1.275       .  A
O617       Zr652   2.533       .  S
O617        C618   1.307       .  A
C618       C1206   1.498       .  S
O619       Zr628   2.375       .  S
O619        C621   1.276       .  A
O620       Zr651   2.397       .  S
O620        C621   1.280       .  A
C621       C1166   1.418       .  S
O622       Zr625   2.410       .  S
O622        C624   1.284       .  A
O623       Zr652   2.440       .  S
O623        C624   1.291       .  A
C624       C1199   1.467       .  S
Zr625       O626   2.435       .  S
Zr625       O627   2.436       .  S
Zr625       O631   2.358       .  S
Zr625       O632   2.376       .  S
Zr625       O655   2.364       .  S
Zr625       O657   2.365       .  S
O626        H669   0.990       .  S
O627        H668   0.990       .  S
O627        H672   0.990       .  S
Zr628       O629   2.432       .  S
Zr628       O630   2.434       .  S
Zr628       O632   2.356       .  S
Zr628       O631   2.360       .  S
Zr628       O656   2.345       .  S
Zr628       O658   2.373       .  S
O629        H670   0.989       .  S
O629        H673   0.990       .  S
O630        H663   0.990       .  S
O631       Zr651   2.370       .  S
O632       Zr652   2.398       .  S
O632        H659   0.965       .  S
O633       Zr645   2.404       .  S
O633        C635   1.283       .  A
O634       Zr652   2.425       .  S
O634        C635   1.288       .  A
C635       C1179   1.470       .  S
O636       Zr648   2.378       .  S
O636        C638   1.278       .  A
O637       Zr651   2.399       .  S
O637        C638   1.280       .  A
C638       C3634   1.450       .  S
O639       Zr648   2.361       .  S
O639        C641   1.272       .  A
O640       Zr652   2.537       .  S
O640        C641   1.308       .  A
C641       C1146   1.498       .  S
O642       Zr645   2.455       .  S
O642        C644   1.291       .  A
O643       Zr651   2.405       .  S
O643        C644   1.282       .  A
C644       C1156   1.485       .  S
Zr645       O646   2.437       .  S
Zr645       O647   2.434       .  S
Zr645       O653   2.378       .  S
Zr645       O654   2.347       .  S
Zr645       O657   2.362       .  S
Zr645       O655   2.370       .  S
O646        H666   0.990       .  S
O646        H671   0.990       .  S
O647        H667   0.990       .  S
Zr648       O649   2.432       .  S
Zr648       O650   2.435       .  S
Zr648       O654   2.355       .  S
Zr648       O653   2.350       .  S
Zr648       O658   2.371       .  S
Zr648       O656   2.327       .  S
O649       H3113   0.990       .  S
O650        H664   0.990       .  S
O650        H674   0.990       .  S
Zr651       O654   2.372       .  S
Zr651       O656   2.378       .  S
Zr651       O657   2.376       .  S
Zr652       O653   2.402       .  S
Zr652       O655   2.415       .  S
Zr652       O658   2.377       .  S
O653        H661   0.965       .  S
O656        H660   0.965       .  S
O657        H662   0.966       .  S
H665       O3097   0.990       .  S
O675       Zr687   2.403       .  S
O675        C677   1.282       .  A
O676       Zr713   2.421       .  S
O676        C677   1.286       .  A
C677       C1176   1.467       .  S
O678       Zr690   2.429       .  S
O678        C680   1.286       .  A
O679       Zr714   2.425       .  S
O679        C680   1.286       .  A
C680       C3577   1.474       .  S
O681       Zr690   2.400       .  S
O681        C683   1.280       .  A
O682       Zr713   2.494       .  S
O682        C683   1.299       .  A
C683       C1096   1.490       .  S
O684       Zr687   2.397       .  S
O684        C686   1.279       .  A
O685       Zr714   2.471       .  S
O685        C686   1.296       .  A
C686       C1089   1.469       .  S
Zr687       O688   2.434       .  S
Zr687       O689   2.435       .  S
Zr687       O693   2.373       .  S
Zr687       O694   2.367       .  S
Zr687       O717   2.385       .  S
Zr687       O719   2.357       .  S
O688        H731   0.990       .  S
O689        H730   0.990       .  S
O689        H734   0.990       .  S
Zr690       O691   2.437       .  S
Zr690       O692   2.433       .  S
Zr690       O694   2.349       .  S
Zr690       O693   2.370       .  S
Zr690       O718   2.370       .  S
Zr690       O720   2.346       .  S
O691        H732   0.990       .  S
O691       H3183   0.990       .  S
O692        H725   0.990       .  S
O693       Zr713   2.382       .  S
O694       Zr714   2.383       .  S
O694        H721   0.964       .  S
O695       Zr707   2.490       .  S
O695        C697   1.295       .  A
O696       Zr714   2.459       .  S
O696        C697   1.294       .  A
C697       C1106   1.509   1_545  S
O698       Zr710   2.403       .  S
O698        C700   1.271       .  A
O699       Zr713   2.461       .  S
O699        C700   1.288       .  A
C700       C1119   1.489       .  S
O701       Zr710   2.383       .  S
O701        C703   1.278   1_545  A
O702       Zr714   2.390       .  S
O702        C703   1.281   1_545  A
C703       C2393   1.440       .  S
O704       Zr707   2.440       .  S
O704        C706   1.289       .  A
O705       Zr713   2.420       .  S
O705        C706   1.287       .  A
C706       C1139   1.462       .  S
Zr707       O708   2.437       .  S
Zr707       O709   2.434       .  S
Zr707       O715   2.358       .  S
Zr707       O716   2.379       .  S
Zr707       O719   2.378       .  S
Zr707       O717   2.377       .  S
O708        H728   0.990       .  S
O708        H733   0.990       .  S
O709        H729   0.990       .  S
Zr710      O1935   2.428   1_545  S
Zr710       O712   2.435       .  S
Zr710       O716   2.338       .  S
Zr710       O715   2.354       .  S
Zr710       O720   2.359       .  S
Zr710       O718   2.362       .  S
O711      Zr1934   2.428       .  S
O711       H1951   0.990       .  S
O712        H726   0.990       .  S
O712        H736   0.990       .  S
Zr713       O716   2.395       .  S
Zr713       O718   2.385       .  S
Zr713       O719   2.413       .  S
Zr714       O715   2.395       .  S
Zr714       O717   2.384       .  S
Zr714       O720   2.388       .  S
O715        H723   0.964       .  S
O718        H722   0.966       .  S
O719        H724   0.966       .  S
H727       O1935   0.990       .  S
H735       O3139   0.990       .  S
O737       Zr749   2.416       .  S
O737        C739   1.284       .  A
O738       Zr775   2.423       .  S
O738        C739   1.285       .  A
C739       C3527   1.457   1_455  S
O740       Zr752   2.416       .  S
O740        C742   1.283       .  A
O741       Zr776   2.492       .  S
O741        C742   1.300       .  A
C742       C1056   1.489       .  S
O743       Zr752   2.439       .  S
O743        C745   1.285       .  A
O744       Zr775   2.414       .  S
O744        C745   1.287       .  A
C745       C1159   1.493       .  S
O746       Zr749   2.409       .  S
O746        C748   1.282       .  A
O747       Zr776   2.526       .  S
O747        C748   1.307       .  A
C748       C1149   1.509       .  S
Zr749      O3198   2.430   1_455  S
Zr749       O751   2.435       .  S
Zr749       O755   2.360       .  S
Zr749       O756   2.370       .  S
Zr749       O779   2.369       .  S
Zr749       O781   2.361       .  S
O750      Zr3197   2.430       .  S
O750        H793   0.990       .  S
O751        H792   0.990       .  S
O751        H796   0.990   1_455  S
Zr752       O753   2.436       .  S
Zr752       O754   2.435       .  S
Zr752       O756   2.367       .  S
Zr752       O755   2.358       .  S
Zr752       O780   2.367       .  S
Zr752       O782   2.373       .  S
O753        H794   0.990       .  S
O753        H797   0.990       .  S
O754        H787   0.990       .  S
O755       Zr775   2.375       .  S
O756       Zr776   2.403       .  S
O756        H783   0.965       .  S
O757       Zr769   2.390       .  S
O757        C759   1.278       .  A
O758       Zr776   2.525       .  S
O758        C759   1.307       .  A
C759       C1029   1.492       .  S
O760       Zr772   2.438       .  S
O760        C762   1.286       .  A
O761       Zr775   2.436       .  S
O761        C762   1.289       .  A
C762       C1036   1.471       .  S
O763       Zr772   2.428       .  S
O763        C765   1.286       .  A
O764       Zr776   2.489       .  S
O764        C765   1.299       .  A
C765       C1066   1.503       .  S
O766       Zr769   2.471       .  S
O766        C768   1.294       .  A
O767       Zr775   2.418       .  S
O767        C768   1.284       .  A
C768       C2273   1.486       .  S
Zr769       O770   2.436       .  S
Zr769       O771   2.434       .  S
Zr769       O777   2.383       .  S
Zr769       O778   2.348       .  S
Zr769       O781   2.342       .  S
Zr769       O779   2.395       .  S
O770        H790   0.990       .  S
O770       H2019   0.990       .  S
O771        H791   0.990       .  S
Zr772       O773   2.432       .  S
Zr772       O774   2.434       .  S
Zr772       O778   2.358       .  S
Zr772       O777   2.373       .  S
Zr772       O782   2.369       .  S
Zr772       O780   2.373       .  S
O773        H789   0.990       .  S
O774        H788   0.990       .  S
O774        H798   0.990       .  S
Zr775       O778   2.367       .  S
Zr775       O780   2.385       .  S
Zr775       O781   2.381       .  S
Zr776       O777   2.414       .  S
Zr776       O779   2.405       .  S
Zr776       O782   2.407       .  S
O777        H785   0.966       .  S
O780        H784   0.966       .  S
O781        H786   0.965       .  S
H795       O1994   0.990       .  S
O799       Zr811   2.407       .  S
O799        C801   1.280       .  A
O800       Zr837   2.482       .  S
O800        C801   1.297       .  A
C801       C1009   1.479       .  S
O802       Zr814   2.404       .  S
O802        C804   1.279       .  A
O803       Zr838   2.460       .  S
O803        C804   1.294       .  A
C804       C1019   1.463       .  S
O805       Zr814   2.410       .  S
O805        C807   1.282       .  A
O806       Zr837   2.427       .  S
O806        C807   1.287       .  A
C807       C1196   1.453       .  S
O808       Zr811   2.442       .  S
O808        C810   1.290       .  A
O809       Zr838   2.410       .  S
O809        C810   1.282       .  A
C810       C1126   1.475       .  S
Zr811       O812   2.435       .  S
Zr811       O813   2.437       .  S
Zr811       O817   2.373       .  S
Zr811       O818   2.347       .  S
Zr811       O841   2.343       .  S
Zr811       O843   2.376       .  S
O812        H855   0.990       .  S
O813        H854   0.990       .  S
O813        H858   0.990       .  S
Zr814       O815   2.437       .  S
Zr814       O816   2.435       .  S
Zr814       O818   2.369       .  S
Zr814       O817   2.374       .  S
Zr814       O842   2.359       .  S
Zr814       O844   2.388       .  S
O815        H856   0.990       .  S
O815        H859   0.990       .  S
O816        H849   0.990       .  S
O817       Zr837   2.385       .  S
O818       Zr838   2.386       .  S
O818        H845   0.964       .  S
O819       Zr831   2.377       .  S
O819        C821   1.274       .  A
O820       Zr838   2.398       .  S
O820        C821   1.280       .  A
C821       C2413   1.424   1_545  S
O822       Zr834   2.443       .  S
O822        C824   1.290       .  A
O823       Zr837   2.419       .  S
O823        C824   1.287       .  A
C824       C1136   1.464       .  S
O825       Zr834   2.481       .  S
O825        C827   1.294       .  A
O826       Zr838   2.456       .  S
O826        C827   1.294       .  A
C827       C1026   1.511       .  S
O828       Zr831   2.403       .  S
O828        C830   1.271       .  A
O829       Zr837   2.460       .  S
O829        C830   1.288       .  A
C830       C1039   1.487       .  S
Zr831      O2056   2.437   1_545  S
Zr831       O833   2.436       .  S
Zr831       O839   2.364       .  S
Zr831       O840   2.343       .  S
Zr831       O843   2.358       .  S
Zr831       O841   2.354       .  S
O832      Zr2055   2.437       .  S
O832        H852   0.990       .  S
O832        H857   0.990       .  S
O833        H853   0.990       .  S
Zr834       O835   2.433       .  S
Zr834       O836   2.434       .  S
Zr834       O840   2.374       .  S
Zr834       O839   2.365       .  S
Zr834       O844   2.377       .  S
Zr834       O842   2.381       .  S
O835        H851   0.990       .  S
O836        H850   0.990       .  S
O836        H860   0.990       .  S
Zr837       O840   2.393       .  S
Zr837       O842   2.408       .  S
Zr837       O843   2.389       .  S
Zr838       O839   2.393       .  S
Zr838       O841   2.384       .  S
Zr838       O844   2.382       .  S
O839        H847   0.965       .  S
O842        H846   0.966       .  S
O843        H848   0.965       .  S
O861       Zr873   2.469       .  S
O861        C863   1.293       .  A
O862       Zr899   2.454       .  S
O862        C863   1.294       .  A
C863       C1099   1.490       .  S
O864       Zr876   2.377       .  S
O864        C866   1.275       .  A
O865       Zr900   2.457       .  S
O865        C866   1.291       .  A
C866       C1086   1.459       .  S
O867       Zr876   2.383       .  S
O867        C869   1.279       .  A
O868       Zr899   2.462       .  S
O868        C869   1.291       .  A
C869       C3434   1.484   1_455  S
O870       Zr873   2.488       .  S
O870        C872   1.298       .  A
O871       Zr900   2.432       .  S
O871        C872   1.288       .  A
C872       C1059   1.496       .  S
Zr873       O874   2.434       .  S
Zr873       O875   2.434       .  S
Zr873       O879   2.373       .  S
Zr873       O880   2.377       .  S
Zr873       O903   2.371       .  S
Zr873       O905   2.396       .  S
O874        H917   0.990       .  S
O875        H916   0.990       .  S
O875        H920   0.990       .  S
Zr876      O3325   2.436   1_455  S
Zr876       O878   2.435       .  S
Zr876       O880   2.362       .  S
Zr876       O879   2.345       .  S
Zr876       O904   2.356       .  S
Zr876       O906   2.360       .  S
O877      Zr3324   2.436       .  S
O877        H918   0.990       .  S
O877        H921   0.990       .  S
O878        H911   0.990       .  S
O879       Zr899   2.387       .  S
O880       Zr900   2.392       .  S
O880        H907   0.966       .  S
O881       Zr893   2.481       .  S
O881        C883   1.295       .  A
O882       Zr900   2.415       .  S
O882        C883   1.284       .  A
C883        C996   1.483       .  S
O884       Zr896   2.393       .  S
O884        C886   1.279       .  A
O885       Zr899   2.477       .  S
O885        C886   1.296       .  A
C886       C1046   1.484       .  S
O887       Zr896   2.377       .  S
O887        C889   1.276       .  A
O888       Zr900   2.458       .  S
O888        C889   1.291       .  A
C889       C1016   1.464       .  S
O890       Zr893   2.468       .  S
O890        C892   1.293       .  A
O891       Zr899   2.440       .  S
O891        C892   1.292       .  A
C892       C1006   1.487       .  S
Zr893       O894   2.437       .  S
Zr893       O895   2.434       .  S
Zr893       O901   2.379       .  S
Zr893       O902   2.368       .  S
Zr893       O905   2.392       .  S
Zr893       O903   2.372       .  S
O894        H914   0.990       .  S
O894        H919   0.990       .  S
O895        H915   0.990       .  S
Zr896       O897   2.432       .  S
Zr896       O898   2.436       .  S
Zr896       O902   2.341       .  S
Zr896       O901   2.362       .  S
Zr896       O906   2.361       .  S
Zr896       O904   2.357       .  S
O897        H913   0.990       .  S
O898        H912   0.990       .  S
O898        H922   0.990       .  S
Zr899       O902   2.380       .  S
Zr899       O904   2.379       .  S
Zr899       O905   2.423       .  S
Zr900       O901   2.394       .  S
Zr900       O903   2.402       .  S
Zr900       O906   2.375       .  S
O901        H909   0.966       .  S
O904        H908   0.966       .  S
O905        H910   0.966       .  S
O923       Zr935   2.450       .  S
O923        C925   1.288       .  A
O924       Zr961   2.438       .  S
O924        C925   1.289       .  A
C925       C1116   1.477       .  S
O926       Zr938   2.412       .  S
O926        C928   1.283       .  A
O927       Zr962   2.488       .  S
O927        C928   1.299       .  A
C928        C999   1.481       .  S
O929       Zr938   2.451       .  S
O929        C931   1.290       .  A
O930       Zr961   2.422       .  S
O930        C931   1.286       .  A
C931       C1216   1.487       .  S
O932       Zr935   2.427       .  S
O932        C934   1.288       .  A
O933       Zr962   2.476       .  S
O933        C934   1.295       .  A
C934       C1069   1.502       .  S
Zr935       O936   2.434       .  S
Zr935       O937   2.435       .  S
Zr935       O941   2.376       .  S
Zr935       O942   2.359       .  S
Zr935       O965   2.375       .  S
Zr935       O967   2.359       .  S
O936        H979   0.990       .  S
O937        H978   0.990       .  S
O937        H982   0.990       .  S
Zr938       O939   2.434       .  S
Zr938       O940   2.435       .  S
Zr938       O942   2.379       .  S
Zr938       O941   2.372       .  S
Zr938       O966   2.355       .  S
Zr938       O968   2.378       .  S
O939        H980   0.989       .  S
O939        H983   0.990       .  S
O940        H973   0.990       .  S
O941       Zr961   2.379       .  S
O942       Zr962   2.416       .  S
O942        H969   0.964       .  S
O943       Zr955   2.382       .  S
O943        C945   1.276       .  A
O944       Zr962   2.535       .  S
O944        C945   1.309       .  A
C945       C1109   1.495       .  S
O946       Zr958   2.420       .  S
O946        C948   1.285       .  A
O947       Zr961   2.414       .  S
O947        C948   1.283       .  A
C948       C1076   1.455       .  S
O949       Zr958   2.410       .  S
O949        C951   1.282       .  A
O950       Zr962   2.513       .  S
O950        C951   1.305       .  A
C951       C1209   1.508       .  S
O952       Zr955   2.448       .  S
O952        C954   1.290       .  A
O953       Zr961   2.407       .  S
O953        C954   1.283       .  A
C954       C2213   1.477       .  S
Zr955       O956   2.436       .  S
Zr955       O957   2.432       .  S
Zr955       O963   2.385       .  S
Zr955       O964   2.342       .  S
Zr955       O967   2.350       .  S
Zr955       O965   2.375       .  S
O956        H976   0.990       .  S
O956        H981   0.990       .  S
O957        H977   0.990       .  S
Zr958       O959   2.434       .  S
Zr958       O960   2.432       .  S
Zr958       O964   2.357       .  S
Zr958       O963   2.369       .  S
Zr958       O968   2.367       .  S
Zr958       O966   2.353       .  S
O959        H975   0.990       .  S
O960        H974   0.989       .  S
O960        H984   0.990       .  S
Zr961       O964   2.381       .  S
Zr961       O966   2.383       .  S
Zr961       O967   2.379       .  S
Zr962       O963   2.405       .  S
Zr962       O965   2.403       .  S
Zr962       O968   2.404       .  S
O963        H971   0.966       .  S
O966        H970   0.965       .  S
O967        H972   0.965       .  S
C985        C986   1.407       .  A
C985        C990   1.384       .  A
C985        H992   1.084       .  S
C986       C3317   1.484       .  S
C986        C987   1.409       .  A
C987        C988   1.407       .  A
C987      Br3442   1.913       .  S
C988        C989   1.411       .  A
C988       H2217   1.083       .  S
C989       C2178   1.477   1_545  S
C989        C990   1.407       .  A
C990       Br991   1.923       .  S
H993       C2212   1.083       .  S
Br994      C3435   1.913   1_455  S
C995        C996   1.398       .  A
C995       C1000   1.396       .  A
C995       H1002   1.084       .  S
C996        C997   1.415       .  A
C997        C998   1.411       .  A
C997      Br1004   1.917       .  S
C998        C999   1.404       .  A
C998       H1003   1.083       .  S
C999       C1000   1.413       .  A
C1000     Br1001   1.920       .  S
C1005      C1006   1.404       .  A
C1005      C1010   1.401       .  A
C1005      H1012   1.083       .  S
C1006      C1007   1.410       .  A
C1007      C1008   1.409       .  A
C1007     Br1014   1.917       .  S
C1008      C1009   1.408       .  A
C1008      H1013   1.084       .  S
C1009      C1010   1.409       .  A
C1010     Br1011   1.920       .  S
C1015      C1016   1.400       .  A
C1015      H1022   1.084       .  S
C1016      C1017   1.412       .  A
C1017      C1018   1.393       .  A
C1017     Br1024   1.921       .  S
C1018      H1023   1.084       .  S
C1019      C1020   1.411       .  A
C1020     Br1021   1.917       .  S
C1025      C2250   1.409       .  A
C1025      H1032   1.083       .  S
C1026      C2249   1.409   1_545  A
C1027      C2252   1.416       .  A
C1027     Br1034   1.919   1_565  S
C1028      C2251   1.416       .  A
C1028      C1029   1.410       .  A
C1028      H1033   1.083       .  S
C1029      C1030   1.411       .  A
C1030     Br1031   1.919       .  S
C1035      C1036   1.395       .  A
C1035      C1040   1.399       .  A
C1035      H1042   1.084       .  S
C1036      C2261   1.406       .  A
C1037      C2260   1.406   1_545  A
C1037      C1038   1.400       .  A
C1037     Br1044   1.909       .  S
C1038      C1039   1.404       .  A
C1038      H1043   1.083       .  S
C1039      C2264   1.422   1_545  A
C1040      C2263   1.422       .  A
C1040     Br1041   1.921       .  S
C1045      C1046   1.400       .  A
C1045      C1050   1.406       .  A
C1045      H1052   1.079       .  S
C1046      C1047   1.414       .  A
C1047      C1048   1.396       .  A
C1047     Br1054   1.920       .  S
C1048      C1049   1.400       .  A
C1048      H1053   1.083       .  S
C1049      C1992   1.486   1_545  S
C1049      C1050   1.416       .  A
C1050     Br2275   1.913   1_545  S
Br1051     C2274   1.913       .  S
C1055      C1056   1.403       .  A
C1055      C1060   1.409       .  A
C1055      H1062   1.084       .  S
C1056      C1057   1.414       .  A
C1057      C1058   1.405       .  A
C1057     Br1064   1.918       .  S
C1058      C1059   1.403       .  A
C1058      H1063   1.084       .  S
C1059      C1060   1.416       .  A
C1060     Br1061   1.910       .  S
C1065      C1066   1.414       .  A
C1065      C1070   1.421       .  A
C1065      H1072   1.083       .  S
C1066      C1067   1.417       .  A
C1067      C1068   1.390       .  A
C1067     Br1074   1.919       .  S
C1068      C1069   1.402       .  A
C1068      H1073   1.084       .  S
C1069      C1070   1.417       .  A
C1070     Br1071   1.915       .  S
C1075      C1076   1.403       .  A
C1075      C1080   1.400       .  A
C1075      H1082   1.084       .  S
C1076      C1077   1.404       .  A
C1077      C1078   1.386       .  A
C1077     Br1084   1.923       .  S
C1078      C1079   1.400       .  A
C1078      H1083   1.085       .  S
C1079      C3187   1.457       .  S
C1079      C1080   1.406       .  A
C1080     Br1081   1.915       .  S
C1085      C1086   1.400       .  A
C1085      H1092   1.084       .  S
C1086      C3535   1.409       .  A
C1087      C3534   1.409       .  A
C1087      C1088   1.396       .  A
C1087     Br1094   1.920       .  S
C1088      H1093   1.084       .  S
C1089      C3538   1.410       .  A
C1090      C3537   1.410   1_455  A
C1090     Br1091   1.912       .  S
C1095      C1096   1.404       .  A
C1095      C1100   1.410       .  A
C1095      H1102   1.083       .  S
C1096      C1097   1.417       .  A
C1097      C3546   1.405       .  A
C1097     Br3552   1.920       .  S
C1098      C3545   1.405   1_455  A
C1098      C1099   1.400       .  A
C1098      H1103   1.083       .  S
C1099      C3548   1.414   1_455  A
C1100      C3547   1.414       .  A
C1100     Br1101   1.913       .  S
Br1104     C3545   1.920   1_455  S
C1105      C2330   1.410       .  A
C1105      H1112   1.084       .  S
C1106      C2329   1.410       .  A
C1107      C2332   1.415       .  A
C1107     Br1114   1.918   1_565  S
C1108      C2331   1.415       .  A
C1108      C1109   1.412       .  A
C1108      H1113   1.084       .  S
C1109      C1110   1.412       .  A
C1110     Br1111   1.918       .  S
C1115      C1116   1.397       .  A
C1115      C2344   1.401       .  A
C1115      H1122   1.084       .  S
C1116      C2341   1.408       .  A
C1117      C2340   1.408   1_545  A
C1117      C1118   1.401       .  A
C1117     Br1124   1.909       .  S
C1118      C1119   1.404       .  A
C1118      H1123   1.083       .  S
C1119      C1120   1.422       .  A
C1120      C2339   1.401   1_545  A
C1120     Br1121   1.922   1_545  S
C1125      C1126   1.402       .  A
C1125      C1130   1.388       .  A
C1125      H1132   1.084       .  S
C1126      C1127   1.414       .  A
C1127      C1128   1.403       .  A
C1127     Br1134   1.919       .  S
C1128      C1129   1.404       .  A
C1128      H1133   1.083       .  S
C1129      C3128   1.474   1_455  S
C1129      C1130   1.408       .  A
C1130     Br1131   1.920   1_455  S
C1135      C1136   1.402       .  A
C1135      C1140   1.399       .  A
C1135      H1142   1.084       .  S
C1136      C1137   1.406       .  A
C1137      C1138   1.393       .  A
C1137     Br1144   1.916       .  S
C1138      C1139   1.400       .  A
C1138      H1143   1.084       .  S
C1139      C1140   1.408       .  A
C1140     Br1141   1.917       .  S
C1145      C1150   1.409       .  A
C1145      H1152   1.083       .  S
C1146      C3595   1.425       .  A
C1147      C3594   1.425       .  A
C1147      C1148   1.409   1_655  A
C1147     Br1154   1.920   1_655  S
C1148      H1153   1.083       .  S
C1149      C3598   1.428   1_455  A
C1150      C3597   1.428       .  A
C1150     Br1151   1.916       .  S
C1155      C1156   1.405       .  A
C1155      C3608   1.403       .  A
C1155      H1162   1.083       .  S
C1156      C1157   1.414       .  A
C1157      C3606   1.391       .  A
C1157     Br1164   1.920       .  S
C1158      C3605   1.391       .  A
C1158      C1159   1.405       .  A
C1158      H1163   1.083       .  S
C1159      C1160   1.420       .  A
C1160      C3603   1.403   1_455  A
C1160     Br1161   1.922       .  S
C1165      C1166   1.390       .  A
C1165      C1170   1.374       .  A
C1165      H1172   1.086       .  S
C1166      C1167   1.405       .  A
C1167      C1168   1.387       .  A
C1167     Br1174   1.920       .  S
C1168      C1169   1.400       .  A
C1168      H2397   1.084       .  S
C1169      C1927   1.440       .  S
C1169      C1170   1.407       .  A
C1170     Br1171   1.918       .  S
H1173      C2392   1.084       .  S
C1175      C1176   1.408       .  A
C1175      C1180   1.389       .  A
C1175      H1182   1.084       .  S
C1176      C1177   1.405       .  A
C1177      C1178   1.392       .  A
C1177     Br1184   1.921       .  S
C1178      C1179   1.410       .  A
C1178      H1183   1.084       .  S
C1179      C1180   1.407       .  A
C1180     Br1181   1.924       .  S
C1185      C1186   1.404       .  A
C1185      C1190   1.376       .  A
C1185      H1192   1.084       .  S
C1186      C3086   1.450   1_455  S
C1186      C1187   1.408       .  A
C1187      C1188   1.391       .  A
C1187     Br3642   1.921   1_455  S
C1188      C1189   1.400       .  A
C1188      H2417   1.084       .  S
C1189      C2045   1.424       .  S
C1189      C1190   1.397       .  A
C1190     Br1191   1.920       .  S
H1193      C2412   1.084       .  S
Br1194     C3635   1.921       .  S
C1195      C1196   1.400       .  A
C1195      C1200   1.397       .  A
C1195      H1202   1.084       .  S
C1196      C1197   1.402       .  A
C1197      C1198   1.392       .  A
C1197     Br1204   1.920       .  S
C1198      C1199   1.405       .  A
C1198      H1203   1.084       .  S
C1199      C1200   1.408       .  A
C1200     Br1201   1.913       .  S
C1205      C1210   1.409       .  A
C1205      H1212   1.083       .  S
C1206      C1207   1.424       .  A
C1207     Br1214   1.918       .  S
C1208      C1209   1.399       .  A
C1208      H1213   1.083       .  S
C1209      C1210   1.426       .  A
C1210     Br1211   1.915       .  S
C1215      C1216   1.408       .  A
C1215      C1220   1.400       .  A
C1215      H1222   1.083       .  S
C1216      C1217   1.415       .  A
C1217      C1218   1.400       .  A
C1217     Br1224   1.922       .  S
C1218      C1219   1.404       .  A
C1218      H1223   1.084       .  S
C1219      C1220   1.408       .  A
C1220     Br1221   1.919       .  S
O1225     Zr1237   2.450       .  S
O1225      C1227   1.289       .  A
O1226     Zr1263   2.419       .  S
O1226      C1227   1.286       .  A
C1227      C1831   1.479       .  S
O1228     Zr1240   2.373       .  S
O1228      C1230   1.275       .  A
O1229     Zr1264   2.533       .  S
O1229      C1230   1.307       .  A
C1230      C1818   1.498       .  S
O1231     Zr1240   2.375       .  S
O1231      C1233   1.276       .  A
O1232     Zr1263   2.397       .  S
O1232      C1233   1.280       .  A
C1233      C1778   1.418       .  S
O1234     Zr1237   2.410       .  S
O1234      C1236   1.284       .  A
O1235     Zr1264   2.440       .  S
O1235      C1236   1.291       .  A
C1236      C1811   1.467       .  S
Zr1237     O1238   2.435       .  S
Zr1237     O1239   2.436       .  S
Zr1237     O1243   2.358       .  S
Zr1237     O1244   2.376       .  S
Zr1237     O1267   2.364       .  S
Zr1237     O1269   2.365       .  S
O1238      H1281   0.990       .  S
O1239      H1280   0.990       .  S
O1239      H1284   0.990       .  S
Zr1240     O1241   2.432       .  S
Zr1240     O1242   2.434       .  S
Zr1240     O1244   2.356       .  S
Zr1240     O1243   2.360       .  S
Zr1240     O1268   2.345       .  S
Zr1240     O1270   2.373       .  S
O1241      H1282   0.989       .  S
O1241      H1285   0.990       .  S
O1242      H1275   0.990       .  S
O1243     Zr1263   2.370       .  S
O1244     Zr1264   2.398       .  S
O1244      H1271   0.965       .  S
O1245     Zr1257   2.404       .  S
O1245      C1247   1.283       .  A
O1246     Zr1264   2.425       .  S
O1246      C1247   1.288       .  A
C1247      C1791   1.470       .  S
O1248     Zr1260   2.378       .  S
O1248      C1250   1.278       .  A
O1249     Zr1263   2.399       .  S
O1249      C1250   1.280       .  A
C1250      C4246   1.450       .  S
O1251     Zr1260   2.361       .  S
O1251      C1253   1.272       .  A
O1252     Zr1264   2.537       .  S
O1252      C1253   1.308       .  A
C1253      C1758   1.498       .  S
O1254     Zr1257   2.455       .  S
O1254      C1256   1.291       .  A
O1255     Zr1263   2.405       .  S
O1255      C1256   1.282       .  A
C1256      C1768   1.485       .  S
Zr1257     O1258   2.437       .  S
Zr1257     O1259   2.434       .  S
Zr1257     O1265   2.378       .  S
Zr1257     O1266   2.347       .  S
Zr1257     O1269   2.362       .  S
Zr1257     O1267   2.369       .  S
O1258      H1278   0.990       .  S
O1258      H1283   0.990       .  S
O1259      H1279   0.990       .  S
Zr1260     O1261   2.432       .  S
Zr1260     O1262   2.435       .  S
Zr1260     O1266   2.355       .  S
Zr1260     O1265   2.350       .  S
Zr1260     O1270   2.371       .  S
Zr1260     O1268   2.327       .  S
O1261      H3725   0.990       .  S
O1262      H1276   0.990       .  S
O1262      H1286   0.990       .  S
Zr1263     O1266   2.372       .  S
Zr1263     O1268   2.378       .  S
Zr1263     O1269   2.376       .  S
Zr1264     O1265   2.402       .  S
Zr1264     O1267   2.415       .  S
Zr1264     O1270   2.377       .  S
O1265      H1273   0.965       .  S
O1268      H1272   0.965       .  S
O1269      H1274   0.966       .  S
H1277      O3709   0.990       .  S
O1287     Zr1299   2.403       .  S
O1287      C1289   1.282       .  A
O1288     Zr1325   2.421       .  S
O1288      C1289   1.286       .  A
C1289      C1788   1.467       .  S
O1290     Zr1302   2.428       .  S
O1290      C1292   1.286       .  A
O1291     Zr1326   2.425       .  S
O1291      C1292   1.286       .  A
C1292      C4189   1.474       .  S
O1293     Zr1302   2.401       .  S
O1293      C1295   1.280       .  A
O1294     Zr1325   2.494       .  S
O1294      C1295   1.299       .  A
C1295      C1708   1.490       .  S
O1296     Zr1299   2.397       .  S
O1296      C1298   1.279       .  A
O1297     Zr1326   2.472       .  S
O1297      C1298   1.296       .  A
C1298      C1701   1.469       .  S
Zr1299     O1300   2.434       .  S
Zr1299     O1301   2.435       .  S
Zr1299     O1305   2.373       .  S
Zr1299     O1306   2.367       .  S
Zr1299     O1329   2.386       .  S
Zr1299     O1331   2.357       .  S
O1300      H1343   0.990       .  S
O1301      H1342   0.990       .  S
O1301      H1346   0.990       .  S
Zr1302     O1303   2.437       .  S
Zr1302     O1304   2.433       .  S
Zr1302     O1306   2.349       .  S
Zr1302     O1305   2.370       .  S
Zr1302     O1330   2.370       .  S
Zr1302     O1332   2.347       .  S
O1303      H1344   0.990       .  S
O1303      H3795   0.990       .  S
O1304      H1337   0.990       .  S
O1305     Zr1325   2.382       .  S
O1306     Zr1326   2.383       .  S
O1306      H1333   0.964       .  S
O1307     Zr1319   2.490       .  S
O1307      C1309   1.295       .  A
O1308     Zr1326   2.460       .  S
O1308      C1309   1.294       .  A
C1309      C1718   1.510       .  S
O1310     Zr1322   2.403       .  S
O1310      C1312   1.271       .  A
O1311     Zr1325   2.461       .  S
O1311      C1312   1.288       .  A
C1312      C1731   1.489       .  S
O1313     Zr1322   2.383       .  S
O1313      C1315   1.278       .  A
O1314     Zr1326   2.390       .  S
O1314      C1315   1.281       .  A
O1316     Zr1319   2.440       .  S
O1316      C1318   1.289       .  A
O1317     Zr1325   2.420       .  S
O1317      C1318   1.287       .  A
C1318      C1751   1.462       .  S
Zr1319     O1320   2.437       .  S
Zr1319     O1321   2.434       .  S
Zr1319     O1327   2.358       .  S
Zr1319     O1328   2.380       .  S
Zr1319     O1331   2.378       .  S
Zr1319     O1329   2.377       .  S
O1320      H1340   0.990       .  S
O1320      H1345   0.990       .  S
O1321      H1341   0.990       .  S
Zr1322     O1324   2.435       .  S
Zr1322     O1328   2.338       .  S
Zr1322     O1327   2.354       .  S
Zr1322     O1332   2.359       .  S
Zr1322     O1330   2.362       .  S
O1324      H1338   0.990       .  S
O1324      H1348   0.990       .  S
Zr1325     O1328   2.395       .  S
Zr1325     O1330   2.385       .  S
Zr1325     O1331   2.413       .  S
Zr1326     O1327   2.395       .  S
Zr1326     O1329   2.384       .  S
Zr1326     O1332   2.388       .  S
O1327      H1335   0.964       .  S
O1330      H1334   0.966       .  S
O1331      H1336   0.966       .  S
H1347      O3751   0.990       .  S
O1349     Zr1361   2.416       .  S
O1349      C1351   1.284       .  A
O1350     Zr1387   2.423       .  S
O1350      C1351   1.285       .  A
C1351      C4139   1.457   1_455  S
O1352     Zr1364   2.416       .  S
O1352      C1354   1.283       .  A
O1353     Zr1388   2.492       .  S
O1353      C1354   1.300       .  A
C1354      C1668   1.489       .  S
O1355     Zr1364   2.439       .  S
O1355      C1357   1.285       .  A
O1356     Zr1387   2.414       .  S
O1356      C1357   1.287       .  A
C1357      C1771   1.493       .  S
O1358     Zr1361   2.409       .  S
O1358      C1360   1.282       .  A
O1359     Zr1388   2.526       .  S
O1359      C1360   1.307       .  A
C1360      C1761   1.509       .  S
Zr1361     O3810   2.430   1_455  S
Zr1361     O1363   2.435       .  S
Zr1361     O1367   2.360       .  S
Zr1361     O1368   2.370       .  S
Zr1361     O1391   2.369       .  S
Zr1361     O1393   2.361       .  S
O1362     Zr3809   2.430       .  S
O1362      H1405   0.990       .  S
O1363      H1404   0.990       .  S
O1363      H1408   0.990   1_455  S
Zr1364     O1365   2.436       .  S
Zr1364     O1366   2.435       .  S
Zr1364     O1368   2.367       .  S
Zr1364     O1367   2.358       .  S
Zr1364     O1392   2.367       .  S
Zr1364     O1394   2.373       .  S
O1365      H1406   0.990       .  S
O1365      H1409   0.990       .  S
O1366      H1399   0.990       .  S
O1367     Zr1387   2.375       .  S
O1368     Zr1388   2.403       .  S
O1368      H1395   0.965       .  S
O1369     Zr1381   2.390       .  S
O1369      C1371   1.278       .  A
O1370     Zr1388   2.525       .  S
O1370      C1371   1.307       .  A
C1371      C1641   1.492       .  S
O1372     Zr1384   2.438       .  S
O1372      C1374   1.286       .  A
O1373     Zr1387   2.436       .  S
O1373      C1374   1.289       .  A
C1374      C1648   1.471       .  S
O1375     Zr1384   2.428       .  S
O1375      C1377   1.286       .  A
O1376     Zr1388   2.489       .  S
O1376      C1377   1.299       .  A
C1377      C1678   1.503       .  S
O1378     Zr1381   2.471       .  S
O1378      C1380   1.294       .  A
O1379     Zr1387   2.418       .  S
O1379      C1380   1.284       .  A
Zr1381     O1382   2.436   1_565  S
Zr1381     O1383   2.434       .  S
Zr1381     O1389   2.383       .  S
Zr1381     O1390   2.348       .  S
Zr1381     O1393   2.342       .  S
Zr1381     O1391   2.395       .  S
O1382      H1402   0.990   1_545  S
O1383      H1403   0.990       .  S
Zr1384     O1385   2.432       .  S
Zr1384     O1386   2.434       .  S
Zr1384     O1390   2.358       .  S
Zr1384     O1389   2.373       .  S
Zr1384     O1394   2.369       .  S
Zr1384     O1392   2.373       .  S
O1385      H1401   0.990       .  S
O1386      H1400   0.990       .  S
O1386      H1410   0.990       .  S
Zr1387     O1390   2.367       .  S
Zr1387     O1392   2.385       .  S
Zr1387     O1393   2.381       .  S
Zr1388     O1389   2.414       .  S
Zr1388     O1391   2.405       .  S
Zr1388     O1394   2.407       .  S
O1389      H1397   0.966       .  S
O1392      H1396   0.966       .  S
O1393      H1398   0.965       .  S
O1411     Zr1423   2.407       .  S
O1411      C1413   1.280       .  A
O1412     Zr1449   2.482       .  S
O1412      C1413   1.297       .  A
C1413      C1621   1.479       .  S
O1414     Zr1426   2.404       .  S
O1414      C1416   1.279       .  A
O1415     Zr1450   2.460       .  S
O1415      C1416   1.294       .  A
C1416      C1631   1.463       .  S
O1417     Zr1426   2.410       .  S
O1417      C1419   1.282       .  A
O1418     Zr1449   2.427       .  S
O1418      C1419   1.287       .  A
C1419      C1808   1.453       .  S
O1420     Zr1423   2.442       .  S
O1420      C1422   1.290       .  A
O1421     Zr1450   2.410       .  S
O1421      C1422   1.282       .  A
C1422      C1738   1.475       .  S
Zr1423     O1424   2.435       .  S
Zr1423     O1425   2.437       .  S
Zr1423     O1429   2.373       .  S
Zr1423     O1430   2.347       .  S
Zr1423     O1453   2.343       .  S
Zr1423     O1455   2.376       .  S
O1424      H1467   0.990       .  S
O1425      H1466   0.990       .  S
O1425      H1470   0.990       .  S
Zr1426     O1427   2.437       .  S
Zr1426     O1428   2.435       .  S
Zr1426     O1430   2.369       .  S
Zr1426     O1429   2.374       .  S
Zr1426     O1454   2.359       .  S
Zr1426     O1456   2.388       .  S
O1427      H1468   0.990       .  S
O1427      H1471   0.990       .  S
O1428      H1461   0.990       .  S
O1429     Zr1449   2.385       .  S
O1430     Zr1450   2.386       .  S
O1430      H1457   0.964       .  S
O1431     Zr1443   2.377       .  S
O1431      C1433   1.274       .  A
O1432     Zr1450   2.398       .  S
O1432      C1433   1.280       .  A
O1434     Zr1446   2.443       .  S
O1434      C1436   1.290       .  A
O1435     Zr1449   2.419       .  S
O1435      C1436   1.287       .  A
C1436      C1748   1.464       .  S
O1437     Zr1446   2.481       .  S
O1437      C1439   1.294       .  A
O1438     Zr1450   2.456       .  S
O1438      C1439   1.294       .  A
C1439      C1638   1.511       .  S
O1440     Zr1443   2.403       .  S
O1440      C1442   1.271       .  A
O1441     Zr1449   2.460       .  S
O1441      C1442   1.288       .  A
C1442      C1651   1.487       .  S
Zr1443     O1445   2.436       .  S
Zr1443     O1451   2.364       .  S
Zr1443     O1452   2.343       .  S
Zr1443     O1455   2.358       .  S
Zr1443     O1453   2.354       .  S
O1444      H1464   0.990       .  S
O1444      H1469   0.990       .  S
O1445      H1465   0.990       .  S
Zr1446     O1447   2.433       .  S
Zr1446     O1448   2.434       .  S
Zr1446     O1452   2.374       .  S
Zr1446     O1451   2.365       .  S
Zr1446     O1456   2.377       .  S
Zr1446     O1454   2.381       .  S
O1447      H1463   0.990       .  S
O1448      H1462   0.990       .  S
O1448      H1472   0.990       .  S
Zr1449     O1452   2.393       .  S
Zr1449     O1454   2.408       .  S
Zr1449     O1455   2.389       .  S
Zr1450     O1451   2.393       .  S
Zr1450     O1453   2.384       .  S
Zr1450     O1456   2.382       .  S
O1451      H1459   0.965       .  S
O1454      H1458   0.966       .  S
O1455      H1460   0.965       .  S
O1473     Zr1485   2.469       .  S
O1473      C1475   1.293       .  A
O1474     Zr1511   2.454       .  S
O1474      C1475   1.294       .  A
C1475      C1711   1.490       .  S
O1476     Zr1488   2.377       .  S
O1476      C1478   1.275       .  A
O1477     Zr1512   2.457       .  S
O1477      C1478   1.291       .  A
C1478      C1698   1.459       .  S
O1479     Zr1488   2.383       .  S
O1479      C1481   1.279       .  A
O1480     Zr1511   2.462       .  S
O1480      C1481   1.291       .  A
C1481      C4046   1.484   1_455  S
O1482     Zr1485   2.488       .  S
O1482      C1484   1.298       .  A
O1483     Zr1512   2.432       .  S
O1483      C1484   1.288       .  A
C1484      C1671   1.496       .  S
Zr1485     O1486   2.434       .  S
Zr1485     O1487   2.434       .  S
Zr1485     O1491   2.373       .  S
Zr1485     O1492   2.377       .  S
Zr1485     O1515   2.371       .  S
Zr1485     O1517   2.396       .  S
O1486      H1529   0.990       .  S
O1487      H1528   0.990       .  S
O1487      H1532   0.990       .  S
Zr1488     O3937   2.436   1_455  S
Zr1488     O1490   2.435       .  S
Zr1488     O1492   2.362       .  S
Zr1488     O1491   2.345       .  S
Zr1488     O1516   2.356       .  S
Zr1488     O1518   2.360       .  S
O1489     Zr3936   2.436       .  S
O1489      H1530   0.990       .  S
O1489      H1533   0.990       .  S
O1490      H1523   0.990       .  S
O1491     Zr1511   2.387       .  S
O1492     Zr1512   2.392       .  S
O1492      H1519   0.966       .  S
O1493     Zr1505   2.482       .  S
O1493      C1495   1.295       .  A
O1494     Zr1512   2.415       .  S
O1494      C1495   1.284       .  A
C1495      C1608   1.483       .  S
O1496     Zr1508   2.393       .  S
O1496      C1498   1.279       .  A
O1497     Zr1511   2.477       .  S
O1497      C1498   1.296       .  A
C1498      C1658   1.484       .  S
O1499     Zr1508   2.377       .  S
O1499      C1501   1.276       .  A
O1500     Zr1512   2.458       .  S
O1500      C1501   1.291       .  A
C1501      C1628   1.464       .  S
O1502     Zr1505   2.468       .  S
O1502      C1504   1.293       .  A
O1503     Zr1511   2.440       .  S
O1503      C1504   1.292       .  A
C1504      C1618   1.487       .  S
Zr1505     O1506   2.437       .  S
Zr1505     O1507   2.434       .  S
Zr1505     O1513   2.379       .  S
Zr1505     O1514   2.368       .  S
Zr1505     O1517   2.392       .  S
Zr1505     O1515   2.372       .  S
O1506      H1526   0.990       .  S
O1506      H1531   0.990       .  S
O1507      H1527   0.990       .  S
Zr1508     O1509   2.432       .  S
Zr1508     O1510   2.436       .  S
Zr1508     O1514   2.341       .  S
Zr1508     O1513   2.362       .  S
Zr1508     O1518   2.361       .  S
Zr1508     O1516   2.357       .  S
O1509      H1525   0.990       .  S
O1510      H1524   0.990       .  S
O1510      H1534   0.990       .  S
Zr1511     O1514   2.380       .  S
Zr1511     O1516   2.379       .  S
Zr1511     O1517   2.423       .  S
Zr1512     O1513   2.394       .  S
Zr1512     O1515   2.402       .  S
Zr1512     O1518   2.375       .  S
O1513      H1521   0.966       .  S
O1516      H1520   0.966       .  S
O1517      H1522   0.966       .  S
O1535     Zr1547   2.450       .  S
O1535      C1537   1.288       .  A
O1536     Zr1573   2.438       .  S
O1536      C1537   1.289       .  A
C1537      C1728   1.477       .  S
O1538     Zr1550   2.412       .  S
O1538      C1540   1.283       .  A
O1539     Zr1574   2.488       .  S
O1539      C1540   1.299       .  A
C1540      C1611   1.481       .  S
O1541     Zr1550   2.451       .  S
O1541      C1543   1.290       .  A
O1542     Zr1573   2.422       .  S
O1542      C1543   1.286       .  A
C1543      C1828   1.487       .  S
O1544     Zr1547   2.427       .  S
O1544      C1546   1.288       .  A
O1545     Zr1574   2.476       .  S
O1545      C1546   1.295       .  A
C1546      C1681   1.502       .  S
Zr1547     O1548   2.434       .  S
Zr1547     O1549   2.435       .  S
Zr1547     O1553   2.376       .  S
Zr1547     O1554   2.359       .  S
Zr1547     O1577   2.375       .  S
Zr1547     O1579   2.359       .  S
O1548      H1591   0.990       .  S
O1549      H1590   0.990       .  S
O1549      H1594   0.990       .  S
Zr1550     O1551   2.434       .  S
Zr1550     O1552   2.435       .  S
Zr1550     O1554   2.379       .  S
Zr1550     O1553   2.372       .  S
Zr1550     O1578   2.355       .  S
Zr1550     O1580   2.379       .  S
O1551      H1592   0.989       .  S
O1551      H1595   0.990       .  S
O1552      H1585   0.990       .  S
O1553     Zr1573   2.379       .  S
O1554     Zr1574   2.416       .  S
O1554      H1581   0.964       .  S
O1555     Zr1567   2.381       .  S
O1555      C1557   1.276       .  A
O1556     Zr1574   2.536       .  S
O1556      C1557   1.309       .  A
C1557      C1721   1.495       .  S
O1558     Zr1570   2.420       .  S
O1558      C1560   1.285       .  A
O1559     Zr1573   2.414       .  S
O1559      C1560   1.283       .  A
C1560      C1688   1.455       .  S
O1561     Zr1570   2.409       .  S
O1561      C1563   1.282       .  A
O1562     Zr1574   2.513       .  S
O1562      C1563   1.305       .  A
C1563      C1821   1.508       .  S
O1564     Zr1567   2.447       .  S
O1564      C1566   1.290       .  A
O1565     Zr1573   2.407       .  S
O1565      C1566   1.283       .  A
Zr1567     O1568   2.436       .  S
Zr1567     O1569   2.432       .  S
Zr1567     O1575   2.385       .  S
Zr1567     O1576   2.341       .  S
Zr1567     O1579   2.350       .  S
Zr1567     O1577   2.375       .  S
O1568      H1588   0.990       .  S
O1568      H1593   0.990       .  S
O1569      H1589   0.990       .  S
Zr1570     O1571   2.434       .  S
Zr1570     O1572   2.432       .  S
Zr1570     O1576   2.357       .  S
Zr1570     O1575   2.369       .  S
Zr1570     O1580   2.367       .  S
Zr1570     O1578   2.354       .  S
O1571      H1587   0.990       .  S
O1572      H1586   0.989       .  S
O1572      H1596   0.990       .  S
Zr1573     O1576   2.381       .  S
Zr1573     O1578   2.383       .  S
Zr1573     O1579   2.379       .  S
Zr1574     O1575   2.405       .  S
Zr1574     O1577   2.403       .  S
Zr1574     O1580   2.404       .  S
O1575      H1583   0.966       .  S
O1578      H1582   0.965       .  S
O1579      H1584   0.965       .  S
C1597      C1598   1.407       .  A
C1597      C1602   1.384       .  A
C1597      H1604   1.084       .  S
C1598      C3929   1.484       .  S
C1598      C1599   1.409       .  A
C1599      C1600   1.407       .  A
C1599     Br4054   1.913       .  S
C1600      C1601   1.411       .  A
C1601      C1602   1.407       .  A
C1602     Br1603   1.923       .  S
Br1606     C4047   1.913   1_455  S
C1607      C1608   1.398       .  A
C1607      C1612   1.396       .  A
C1607      H1614   1.084       .  S
C1608      C1609   1.415       .  A
C1609      C1610   1.411       .  A
C1609     Br1616   1.917       .  S
C1610      C1611   1.404       .  A
C1610      H1615   1.083       .  S
C1611      C1612   1.413       .  A
C1612     Br1613   1.920       .  S
C1617      C1618   1.404       .  A
C1617      C1622   1.401       .  A
C1617      H1624   1.083       .  S
C1618      C1619   1.410       .  A
C1619      C1620   1.409       .  A
C1619     Br1626   1.917       .  S
C1620      C1621   1.408       .  A
C1620      H1625   1.084       .  S
C1621      C1622   1.409       .  A
C1622     Br1623   1.920       .  S
C1627      C1628   1.400       .  A
C1627      C2244   1.400   1_554  A
C1627      H1634   1.084       .  S
C1628      C1629   1.412       .  A
C1629      C1630   1.393       .  A
C1629     Br1636   1.921       .  S
C1630      C2243   1.397   1_554  A
C1630      H1635   1.084       .  S
C1631      C2242   1.397       .  A
C1631      C1632   1.411       .  A
C1632      C2239   1.400       .  A
C1632     Br1633   1.917       .  S
C1637      C2254   1.406       .  A
C1637      H1644   1.083       .  S
C1638      C2251   1.418       .  A
C1639      C2250   1.418       .  A
C1639     Br1646   1.919       .  S
C1640      C1641   1.410       .  A
C1640      H1645   1.083       .  S
C1641      C1642   1.411   1_554  A
C1642      C2249   1.406       .  A
C1642     Br1643   1.919       .  S
C1647      C1648   1.395       .  A
C1647      C1652   1.399       .  A
C1647      H1654   1.084       .  S
C1649      C1650   1.400       .  A
C1649     Br1656   1.909       .  S
C1650      C1651   1.404       .  A
C1650      H1655   1.083       .  S
C1652     Br1653   1.921       .  S
C1657      C1658   1.400       .  A
C1657      C1662   1.406       .  A
C1657      H1664   1.079       .  S
C1658      C1659   1.414       .  A
C1659      C1660   1.396       .  A
C1659     Br1666   1.920       .  S
C1660      C1661   1.400       .  A
C1660      H1665   1.083       .  S
C1661      C1662   1.416       .  A
C1667      C1668   1.403       .  A
C1667      C1672   1.409       .  A
C1667      H1674   1.084       .  S
C1668      C1669   1.414       .  A
C1669      C1670   1.405       .  A
C1669     Br1676   1.918       .  S
C1670      C1671   1.403       .  A
C1670      H1675   1.084       .  S
C1671      C1672   1.416       .  A
C1672     Br1673   1.910       .  S
C1677      C1678   1.413       .  A
C1677      C1682   1.421       .  A
C1677      H1684   1.083       .  S
C1678      C1679   1.417       .  A
C1679      C1680   1.389       .  A
C1679     Br1686   1.919       .  S
C1680      C1681   1.402       .  A
C1680      H1685   1.084       .  S
C1681      C1682   1.417       .  A
C1682     Br1683   1.915       .  S
C1687      C1688   1.403       .  A
C1687      C1692   1.400       .  A
C1687      H1694   1.084       .  S
C1688      C1689   1.404       .  A
C1689      C1690   1.386       .  A
C1689     Br1696   1.923       .  S
C1690      C1691   1.400       .  A
C1690      H1695   1.085       .  S
C1691      C3799   1.457       .  S
C1691      C1692   1.406       .  A
C1692     Br1693   1.915       .  S
C1697      C1698   1.400       .  A
C1697      C2314   1.399   1_554  A
C1697      H1704   1.084       .  S
C1698      C4147   1.409       .  A
C1699      C4146   1.409       .  A
C1699      C1700   1.396       .  A
C1699     Br1706   1.920       .  S
C1700      C2313   1.402   1_554  A
C1700      H1705   1.084       .  S
C1701      C2312   1.402       .  A
C1701      C4150   1.410       .  A
C1702      C2309   1.399       .  A
C1702      C4149   1.410   1_455  A
C1702     Br1703   1.912       .  S
C1707      C1708   1.404       .  A
C1707      C1712   1.410       .  A
C1707      H1714   1.083       .  S
C1708      C1709   1.417       .  A
C1709      C4158   1.405       .  A
C1709     Br4164   1.920       .  S
C1710      C4157   1.405   1_455  A
C1710      C1711   1.400       .  A
C1710      H1715   1.083       .  S
C1711      C4160   1.414   1_455  A
C1712      C4159   1.414       .  A
C1712     Br1713   1.913       .  S
Br1716     C4157   1.920   1_455  S
C1717      C2334   1.411       .  A
C1717      H1724   1.084       .  S
C1718      C2331   1.415       .  A
C1719      C2330   1.415       .  A
C1719     Br1726   1.918   1_556  S
C1720      C1721   1.412       .  A
C1720      H1725   1.084       .  S
C1721      C1722   1.412   1_554  A
C1722      C2329   1.411       .  A
C1722     Br1723   1.918       .  S
C1727      C1728   1.397       .  A
C1727      H1734   1.084       .  S
C1729      C1730   1.401       .  A
C1729     Br1736   1.909       .  S
C1730      C1731   1.404       .  A
C1730      H1735   1.083       .  S
C1731      C1732   1.422       .  A
C1732     Br1733   1.922       .  S
C1737      C1738   1.402       .  A
C1737      C1742   1.388       .  A
C1737      H1744   1.084       .  S
C1738      C1739   1.414       .  A
C1739      C1740   1.403       .  A
C1739     Br1746   1.919       .  S
C1740      C1741   1.404       .  A
C1740      H1745   1.083       .  S
C1741      C3740   1.474   1_455  S
C1741      C1742   1.408       .  A
C1742     Br1743   1.920   1_455  S
C1747      C1748   1.402       .  A
C1747      C1752   1.399       .  A
C1747      H1754   1.084       .  S
C1748      C1749   1.406       .  A
C1749      C1750   1.393       .  A
C1749     Br1756   1.915       .  S
C1750      C1751   1.400       .  A
C1750      H1755   1.084       .  S
C1751      C1752   1.408       .  A
C1752     Br1753   1.917       .  S
C1757      C2370   1.396   1_554  A
C1757      C1762   1.409       .  A
C1757      H1764   1.083       .  S
C1758      C2369   1.396       .  A
C1758      C4207   1.425       .  A
C1759      C4206   1.425       .  A
C1759      C1760   1.409   1_655  A
C1759     Br1766   1.920   1_655  S
C1760      C2373   1.400       .  A
C1760      H1765   1.083       .  S
C1761      C2372   1.400   1_554  A
C1761      C4210   1.428   1_455  A
C1762      C4209   1.428       .  A
C1762     Br1763   1.916       .  S
C1767      C1768   1.405       .  A
C1767      C4220   1.403       .  A
C1767      H1774   1.083       .  S
C1768      C1769   1.414       .  A
C1769      C4218   1.391       .  A
C1769     Br1776   1.920       .  S
C1770      C4217   1.391       .  A
C1770      C1771   1.405       .  A
C1770      H1775   1.083       .  S
C1771      C1772   1.420       .  A
C1772      C4215   1.403   1_455  A
C1772     Br1773   1.922       .  S
C1777      C1778   1.390       .  A
C1777      C1782   1.374       .  A
C1777      H1784   1.086       .  S
C1778      C1779   1.405       .  A
C1779      C1780   1.387       .  A
C1779     Br1786   1.920       .  S
C1780      C1781   1.400       .  A
C1781      C1782   1.407       .  A
C1782     Br1783   1.918       .  S
C1787      C1788   1.408       .  A
C1787      C1792   1.389       .  A
C1787      H1794   1.084       .  S
C1788      C1789   1.405       .  A
C1789      C1790   1.392       .  A
C1789     Br1796   1.921       .  S
C1790      C1791   1.410       .  A
C1790      H1795   1.084       .  S
C1791      C1792   1.407       .  A
C1792     Br1793   1.924       .  S
C1797      C1798   1.404       .  A
C1797      C1802   1.376       .  A
C1797      H1804   1.084       .  S
C1798      C3698   1.450   1_455  S
C1798      C1799   1.408       .  A
C1799      C1800   1.391       .  A
C1799     Br4254   1.921   1_455  S
C1800      C1801   1.400       .  A
C1801      C1802   1.397       .  A
C1802     Br1803   1.920       .  S
Br1806     C4247   1.921       .  S
C1807      C1808   1.400       .  A
C1807      C1812   1.397       .  A
C1807      H1814   1.084       .  S
C1808      C1809   1.402       .  A
C1809      C1810   1.392       .  A
C1809     Br1816   1.920       .  S
C1810      C1811   1.405       .  A
C1810      H1815   1.084       .  S
C1811      C1812   1.408       .  A
C1812     Br1813   1.913       .  S
C1817      C2430   1.397   1_554  A
C1817      C1822   1.409       .  A
C1817      H1824   1.083       .  S
C1818      C2429   1.397       .  A
C1818      C1819   1.424       .  A
C1819      C2432   1.407       .  A
C1819     Br1826   1.918       .  S
C1820      C2431   1.407       .  A
C1820      C1821   1.399   1_556  A
C1820      H1825   1.083       .  S
C1821      C1822   1.427       .  A
C1822     Br1823   1.915       .  S
C1827      C1828   1.408       .  A
C1827      C1832   1.400       .  A
C1827      H1834   1.083       .  S
C1828      C1829   1.415       .  A
C1829      C1830   1.400       .  A
C1829     Br1836   1.922       .  S
C1830      C1831   1.404       .  A
C1830      H1835   1.084       .  S
C1831      C1832   1.409       .  A
C1832     Br1833   1.919       .  S
O1837     Zr1849   2.450       .  S
O1837      C1839   1.289       .  A
O1838     Zr1875   2.419       .  S
O1838      C1839   1.286       .  A
C1839      C2443   1.479       .  S
O1840     Zr1852   2.373       .  S
O1840      C1842   1.275       .  A
O1841     Zr1876   2.533       .  S
O1841      C1842   1.307       .  A
C1842      C2430   1.498       .  S
O1843     Zr1852   2.375       .  S
O1843      C1845   1.276       .  A
O1844     Zr1875   2.397       .  S
O1844      C1845   1.280       .  A
C1845      C2390   1.418       .  S
O1846     Zr1849   2.410       .  S
O1846      C1848   1.284       .  A
O1847     Zr1876   2.440       .  S
O1847      C1848   1.291       .  A
C1848      C2423   1.467       .  S
Zr1849     O1850   2.435       .  S
Zr1849     O1851   2.436       .  S
Zr1849     O1855   2.358       .  S
Zr1849     O1856   2.376       .  S
Zr1849     O1879   2.364       .  S
Zr1849     O1881   2.365       .  S
O1850      H1893   0.990       .  S
O1851      H1892   0.990       .  S
O1851      H1896   0.990       .  S
Zr1852     O1853   2.432       .  S
Zr1852     O1854   2.434       .  S
Zr1852     O1856   2.356       .  S
Zr1852     O1855   2.360       .  S
Zr1852     O1880   2.345       .  S
Zr1852     O1882   2.373       .  S
O1853      H1894   0.989       .  S
O1853      H1897   0.990       .  S
O1854      H1887   0.990       .  S
O1855     Zr1875   2.370       .  S
O1856     Zr1876   2.398       .  S
O1856      H1883   0.965       .  S
O1857     Zr1869   2.404       .  S
O1857      C1859   1.283       .  A
O1858     Zr1876   2.425       .  S
O1858      C1859   1.288       .  A
C1859      C2403   1.470       .  S
O1860     Zr1872   2.378       .  S
O1860      C1862   1.278       .  A
O1861     Zr1875   2.399       .  S
O1861      C1862   1.280       .  A
C1862      C4858   1.450       .  S
O1863     Zr1872   2.361       .  S
O1863      C1865   1.272       .  A
O1864     Zr1876   2.537       .  S
O1864      C1865   1.308       .  A
C1865      C2370   1.498       .  S
O1866     Zr1869   2.455       .  S
O1866      C1868   1.291       .  A
O1867     Zr1875   2.405       .  S
O1867      C1868   1.282       .  A
C1868      C2380   1.485       .  S
Zr1869     O1870   2.437       .  S
Zr1869     O1871   2.434       .  S
Zr1869     O1877   2.378       .  S
Zr1869     O1878   2.347       .  S
Zr1869     O1881   2.362       .  S
Zr1869     O1879   2.370       .  S
O1870      H1890   0.990       .  S
O1870      H1895   0.990       .  S
O1871      H1891   0.990       .  S
Zr1872     O1873   2.432       .  S
Zr1872     O1874   2.435       .  S
Zr1872     O1878   2.355       .  S
Zr1872     O1877   2.350       .  S
Zr1872     O1882   2.371       .  S
Zr1872     O1880   2.327       .  S
O1873      H4337   0.990       .  S
O1874      H1888   0.990       .  S
O1874      H1898   0.990       .  S
Zr1875     O1878   2.372       .  S
Zr1875     O1880   2.378       .  S
Zr1875     O1881   2.376       .  S
Zr1876     O1877   2.402       .  S
Zr1876     O1879   2.415       .  S
Zr1876     O1882   2.377       .  S
O1877      H1885   0.965       .  S
O1880      H1884   0.965       .  S
O1881      H1886   0.966       .  S
H1889      O4321   0.990       .  S
O1899     Zr1911   2.403       .  S
O1899      C1901   1.282       .  A
O1900     Zr1937   2.421       .  S
O1900      C1901   1.286       .  A
C1901      C2400   1.467       .  S
O1902     Zr1914   2.429       .  S
O1902      C1904   1.286       .  A
O1903     Zr1938   2.425       .  S
O1903      C1904   1.286       .  A
C1904      C4801   1.474       .  S
O1905     Zr1914   2.400       .  S
O1905      C1907   1.280       .  A
O1906     Zr1937   2.494       .  S
O1906      C1907   1.299       .  A
C1907      C2320   1.490       .  S
O1908     Zr1911   2.397       .  S
O1908      C1910   1.279       .  A
O1909     Zr1938   2.471       .  S
O1909      C1910   1.296       .  A
C1910      C2313   1.469       .  S
Zr1911     O1912   2.434       .  S
Zr1911     O1913   2.435       .  S
Zr1911     O1917   2.373       .  S
Zr1911     O1918   2.367       .  S
Zr1911     O1941   2.385       .  S
Zr1911     O1943   2.357       .  S
O1912      H1955   0.990       .  S
O1913      H1954   0.990       .  S
O1913      H1958   0.990       .  S
Zr1914     O1915   2.437       .  S
Zr1914     O1916   2.433       .  S
Zr1914     O1918   2.349       .  S
Zr1914     O1917   2.370       .  S
Zr1914     O1942   2.370       .  S
Zr1914     O1944   2.346       .  S
O1915      H1956   0.990       .  S
O1915      H4407   0.990       .  S
O1916      H1949   0.990       .  S
O1917     Zr1937   2.382       .  S
O1918     Zr1938   2.383       .  S
O1918      H1945   0.964       .  S
O1919     Zr1931   2.490       .  S
O1919      C1921   1.295       .  A
O1920     Zr1938   2.459       .  S
O1920      C1921   1.294       .  A
C1921      C2330   1.509       .  S
O1922     Zr1934   2.403       .  S
O1922      C1924   1.271       .  A
O1923     Zr1937   2.461       .  S
O1923      C1924   1.288       .  A
C1924      C2343   1.489       .  S
O1925     Zr1934   2.383       .  S
O1925      C1927   1.278       .  A
O1926     Zr1938   2.390       .  S
O1926      C1927   1.281       .  A
O1928     Zr1931   2.440       .  S
O1928      C1930   1.289       .  A
O1929     Zr1937   2.420       .  S
O1929      C1930   1.287       .  A
C1930      C2363   1.462       .  S
Zr1931     O1932   2.437       .  S
Zr1931     O1933   2.434       .  S
Zr1931     O1939   2.358       .  S
Zr1931     O1940   2.379       .  S
Zr1931     O1943   2.378       .  S
Zr1931     O1941   2.377       .  S
O1932      H1952   0.990       .  S
O1932      H1957   0.990       .  S
O1933      H1953   0.990       .  S
Zr1934     O1936   2.435       .  S
Zr1934     O1940   2.338       .  S
Zr1934     O1939   2.354       .  S
Zr1934     O1944   2.359       .  S
Zr1934     O1942   2.362       .  S
O1936      H1950   0.990       .  S
O1936      H1960   0.990       .  S
Zr1937     O1940   2.395       .  S
Zr1937     O1942   2.385       .  S
Zr1937     O1943   2.413       .  S
Zr1938     O1939   2.395       .  S
Zr1938     O1941   2.384       .  S
Zr1938     O1944   2.388       .  S
O1939      H1947   0.964       .  S
O1942      H1946   0.966       .  S
O1943      H1948   0.966       .  S
H1959      O4363   0.990       .  S
O1961     Zr1973   2.416       .  S
O1961      C1963   1.284       .  A
O1962     Zr1999   2.423       .  S
O1962      C1963   1.285       .  A
C1963      C4751   1.457   1_455  S
O1964     Zr1976   2.416       .  S
O1964      C1966   1.283       .  A
O1965     Zr2000   2.492       .  S
O1965      C1966   1.300       .  A
C1966      C2280   1.489       .  S
O1967     Zr1976   2.439       .  S
O1967      C1969   1.285       .  A
O1968     Zr1999   2.414       .  S
O1968      C1969   1.287       .  A
C1969      C2383   1.493       .  S
O1970     Zr1973   2.409       .  S
O1970      C1972   1.282       .  A
O1971     Zr2000   2.526       .  S
O1971      C1972   1.307       .  A
C1972      C2373   1.509       .  S
Zr1973     O4422   2.430   1_455  S
Zr1973     O1975   2.435       .  S
Zr1973     O1979   2.360       .  S
Zr1973     O1980   2.370       .  S
Zr1973     O2003   2.369       .  S
Zr1973     O2005   2.361       .  S
O1974     Zr4421   2.430       .  S
O1974      H2017   0.990       .  S
O1975      H2016   0.990       .  S
O1975      H2020   0.990   1_455  S
Zr1976     O1977   2.436       .  S
Zr1976     O1978   2.435       .  S
Zr1976     O1980   2.367       .  S
Zr1976     O1979   2.358       .  S
Zr1976     O2004   2.367       .  S
Zr1976     O2006   2.373       .  S
O1977      H2018   0.990       .  S
O1977      H2021   0.990       .  S
O1978      H2011   0.990       .  S
O1979     Zr1999   2.375       .  S
O1980     Zr2000   2.403       .  S
O1980      H2007   0.965       .  S
O1981     Zr1993   2.390       .  S
O1981      C1983   1.278       .  A
O1982     Zr2000   2.525       .  S
O1982      C1983   1.307       .  A
C1983      C2253   1.492       .  S
O1984     Zr1996   2.438       .  S
O1984      C1986   1.286       .  A
O1985     Zr1999   2.436       .  S
O1985      C1986   1.289       .  A
C1986      C2260   1.471       .  S
O1987     Zr1996   2.428       .  S
O1987      C1989   1.286       .  A
O1988     Zr2000   2.489       .  S
O1988      C1989   1.299       .  A
C1989      C2290   1.503       .  S
O1990     Zr1993   2.471       .  S
O1990      C1992   1.294       .  A
O1991     Zr1999   2.418       .  S
O1991      C1992   1.284       .  A
Zr1993     O1994   2.436   1_565  S
Zr1993     O1995   2.434       .  S
Zr1993     O2001   2.383       .  S
Zr1993     O2002   2.348       .  S
Zr1993     O2005   2.342       .  S
Zr1993     O2003   2.395       .  S
O1994      H2014   0.990   1_545  S
O1995      H2015   0.990       .  S
Zr1996     O1997   2.432       .  S
Zr1996     O1998   2.434       .  S
Zr1996     O2002   2.358       .  S
Zr1996     O2001   2.373       .  S
Zr1996     O2006   2.369       .  S
Zr1996     O2004   2.373       .  S
O1997      H2013   0.990       .  S
O1998      H2012   0.990       .  S
O1998      H2022   0.990       .  S
Zr1999     O2002   2.367       .  S
Zr1999     O2004   2.385       .  S
Zr1999     O2005   2.381       .  S
Zr2000     O2001   2.414       .  S
Zr2000     O2003   2.405       .  S
Zr2000     O2006   2.407       .  S
O2001      H2009   0.966       .  S
O2004      H2008   0.966       .  S
O2005      H2010   0.965       .  S
O2023     Zr2035   2.407       .  S
O2023      C2025   1.280       .  A
O2024     Zr2061   2.482       .  S
O2024      C2025   1.297       .  A
C2025      C2233   1.479       .  S
O2026     Zr2038   2.404       .  S
O2026      C2028   1.279       .  A
O2027     Zr2062   2.460       .  S
O2027      C2028   1.294       .  A
C2028      C2243   1.463       .  S
O2029     Zr2038   2.410       .  S
O2029      C2031   1.282       .  A
O2030     Zr2061   2.427       .  S
O2030      C2031   1.287       .  A
C2031      C2420   1.453       .  S
O2032     Zr2035   2.442       .  S
O2032      C2034   1.290       .  A
O2033     Zr2062   2.410       .  S
O2033      C2034   1.282       .  A
C2034      C2350   1.475       .  S
Zr2035     O2036   2.435       .  S
Zr2035     O2037   2.437       .  S
Zr2035     O2041   2.373       .  S
Zr2035     O2042   2.347       .  S
Zr2035     O2065   2.343       .  S
Zr2035     O2067   2.376       .  S
O2036      H2079   0.990       .  S
O2037      H2078   0.990       .  S
O2037      H2082   0.990       .  S
Zr2038     O2039   2.437       .  S
Zr2038     O2040   2.435       .  S
Zr2038     O2042   2.369       .  S
Zr2038     O2041   2.374       .  S
Zr2038     O2066   2.359       .  S
Zr2038     O2068   2.388       .  S
O2039      H2080   0.990       .  S
O2039      H2083   0.990       .  S
O2040      H2073   0.990       .  S
O2041     Zr2061   2.385       .  S
O2042     Zr2062   2.386       .  S
O2042      H2069   0.964       .  S
O2043     Zr2055   2.377       .  S
O2043      C2045   1.274       .  A
O2044     Zr2062   2.398       .  S
O2044      C2045   1.280       .  A
O2046     Zr2058   2.443       .  S
O2046      C2048   1.290       .  A
O2047     Zr2061   2.419       .  S
O2047      C2048   1.287       .  A
C2048      C2360   1.464       .  S
O2049     Zr2058   2.481       .  S
O2049      C2051   1.294       .  A
O2050     Zr2062   2.456       .  S
O2050      C2051   1.294       .  A
C2051      C2250   1.511       .  S
O2052     Zr2055   2.403       .  S
O2052      C2054   1.271       .  A
O2053     Zr2061   2.460       .  S
O2053      C2054   1.288       .  A
C2054      C2263   1.487       .  S
Zr2055     O2057   2.436       .  S
Zr2055     O2063   2.364       .  S
Zr2055     O2064   2.343       .  S
Zr2055     O2067   2.358       .  S
Zr2055     O2065   2.354       .  S
O2056      H2076   0.990       .  S
O2056      H2081   0.990       .  S
O2057      H2077   0.990       .  S
Zr2058     O2059   2.433       .  S
Zr2058     O2060   2.434       .  S
Zr2058     O2064   2.374       .  S
Zr2058     O2063   2.365       .  S
Zr2058     O2068   2.377       .  S
Zr2058     O2066   2.381       .  S
O2059      H2075   0.990       .  S
O2060      H2074   0.990       .  S
O2060      H2084   0.990       .  S
Zr2061     O2064   2.393       .  S
Zr2061     O2066   2.408       .  S
Zr2061     O2067   2.389       .  S
Zr2062     O2063   2.393       .  S
Zr2062     O2065   2.384       .  S
Zr2062     O2068   2.382       .  S
O2063      H2071   0.965       .  S
O2066      H2070   0.966       .  S
O2067      H2072   0.965       .  S
O2085     Zr2097   2.469       .  S
O2085      C2087   1.293       .  A
O2086     Zr2123   2.454       .  S
O2086      C2087   1.294       .  A
C2087      C2323   1.490       .  S
O2088     Zr2100   2.377       .  S
O2088      C2090   1.275       .  A
O2089     Zr2124   2.457       .  S
O2089      C2090   1.291       .  A
C2090      C2310   1.459       .  S
O2091     Zr2100   2.383       .  S
O2091      C2093   1.279       .  A
O2092     Zr2123   2.462       .  S
O2092      C2093   1.291       .  A
C2093      C4658   1.484   1_455  S
O2094     Zr2097   2.488       .  S
O2094      C2096   1.298       .  A
O2095     Zr2124   2.432       .  S
O2095      C2096   1.288       .  A
C2096      C2283   1.496       .  S
Zr2097     O2098   2.434       .  S
Zr2097     O2099   2.434       .  S
Zr2097     O2103   2.373       .  S
Zr2097     O2104   2.377       .  S
Zr2097     O2127   2.371       .  S
Zr2097     O2129   2.396       .  S
O2098      H2141   0.990       .  S
O2099      H2140   0.990       .  S
O2099      H2144   0.990       .  S
Zr2100     O4549   2.436   1_455  S
Zr2100     O2102   2.435       .  S
Zr2100     O2104   2.362       .  S
Zr2100     O2103   2.345       .  S
Zr2100     O2128   2.356       .  S
Zr2100     O2130   2.360       .  S
O2101     Zr4548   2.436       .  S
O2101      H2142   0.990       .  S
O2101      H2145   0.990       .  S
O2102      H2135   0.990       .  S
O2103     Zr2123   2.387       .  S
O2104     Zr2124   2.392       .  S
O2104      H2131   0.966       .  S
O2105     Zr2117   2.481       .  S
O2105      C2107   1.295       .  A
O2106     Zr2124   2.415       .  S
O2106      C2107   1.284       .  A
C2107      C2220   1.483       .  S
O2108     Zr2120   2.393       .  S
O2108      C2110   1.279       .  A
O2109     Zr2123   2.477       .  S
O2109      C2110   1.296       .  A
C2110      C2270   1.484       .  S
O2111     Zr2120   2.377       .  S
O2111      C2113   1.276       .  A
O2112     Zr2124   2.458       .  S
O2112      C2113   1.291       .  A
C2113      C2240   1.464       .  S
O2114     Zr2117   2.468       .  S
O2114      C2116   1.293       .  A
O2115     Zr2123   2.440       .  S
O2115      C2116   1.292       .  A
C2116      C2230   1.487       .  S
Zr2117     O2118   2.437       .  S
Zr2117     O2119   2.434       .  S
Zr2117     O2125   2.379       .  S
Zr2117     O2126   2.368       .  S
Zr2117     O2129   2.392       .  S
Zr2117     O2127   2.372       .  S
O2118      H2138   0.990       .  S
O2118      H2143   0.990       .  S
O2119      H2139   0.990       .  S
Zr2120     O2121   2.432       .  S
Zr2120     O2122   2.436       .  S
Zr2120     O2126   2.341       .  S
Zr2120     O2125   2.362       .  S
Zr2120     O2130   2.361       .  S
Zr2120     O2128   2.357       .  S
O2121      H2137   0.990       .  S
O2122      H2136   0.990       .  S
O2122      H2146   0.990       .  S
Zr2123     O2126   2.380       .  S
Zr2123     O2128   2.379       .  S
Zr2123     O2129   2.423       .  S
Zr2124     O2125   2.394       .  S
Zr2124     O2127   2.402       .  S
Zr2124     O2130   2.375       .  S
O2125      H2133   0.966       .  S
O2128      H2132   0.966       .  S
O2129      H2134   0.966       .  S
O2147     Zr2159   2.450       .  S
O2147      C2149   1.288       .  A
O2148     Zr2185   2.438       .  S
O2148      C2149   1.289       .  A
C2149      C2340   1.477       .  S
O2150     Zr2162   2.412       .  S
O2150      C2152   1.283       .  A
O2151     Zr2186   2.488       .  S
O2151      C2152   1.299       .  A
C2152      C2223   1.481       .  S
O2153     Zr2162   2.451       .  S
O2153      C2155   1.290       .  A
O2154     Zr2185   2.422       .  S
O2154      C2155   1.286       .  A
C2155      C2440   1.487       .  S
O2156     Zr2159   2.427       .  S
O2156      C2158   1.288       .  A
O2157     Zr2186   2.476       .  S
O2157      C2158   1.295       .  A
C2158      C2293   1.502       .  S
Zr2159     O2160   2.434       .  S
Zr2159     O2161   2.435       .  S
Zr2159     O2165   2.376       .  S
Zr2159     O2166   2.359       .  S
Zr2159     O2189   2.375       .  S
Zr2159     O2191   2.359       .  S
O2160      H2203   0.990       .  S
O2161      H2202   0.990       .  S
O2161      H2206   0.990       .  S
Zr2162     O2163   2.434       .  S
Zr2162     O2164   2.435       .  S
Zr2162     O2166   2.379       .  S
Zr2162     O2165   2.372       .  S
Zr2162     O2190   2.355       .  S
Zr2162     O2192   2.378       .  S
O2163      H2204   0.989       .  S
O2163      H2207   0.990       .  S
O2164      H2197   0.990       .  S
O2165     Zr2185   2.379       .  S
O2166     Zr2186   2.416       .  S
O2166      H2193   0.964       .  S
O2167     Zr2179   2.382       .  S
O2167      C2169   1.276       .  A
O2168     Zr2186   2.535       .  S
O2168      C2169   1.309       .  A
C2169      C2333   1.495       .  S
O2170     Zr2182   2.420       .  S
O2170      C2172   1.285       .  A
O2171     Zr2185   2.414       .  S
O2171      C2172   1.283       .  A
C2172      C2300   1.455       .  S
O2173     Zr2182   2.410       .  S
O2173      C2175   1.282       .  A
O2174     Zr2186   2.513       .  S
O2174      C2175   1.305       .  A
C2175      C2433   1.508       .  S
O2176     Zr2179   2.448       .  S
O2176      C2178   1.290       .  A
O2177     Zr2185   2.407       .  S
O2177      C2178   1.283       .  A
Zr2179     O2180   2.436       .  S
Zr2179     O2181   2.432       .  S
Zr2179     O2187   2.385       .  S
Zr2179     O2188   2.342       .  S
Zr2179     O2191   2.350       .  S
Zr2179     O2189   2.375       .  S
O2180      H2200   0.990       .  S
O2180      H2205   0.990       .  S
O2181      H2201   0.990       .  S
Zr2182     O2183   2.434       .  S
Zr2182     O2184   2.432       .  S
Zr2182     O2188   2.357       .  S
Zr2182     O2187   2.369       .  S
Zr2182     O2192   2.367       .  S
Zr2182     O2190   2.353       .  S
O2183      H2199   0.990       .  S
O2184      H2198   0.989       .  S
O2184      H2208   0.990       .  S
Zr2185     O2188   2.381       .  S
Zr2185     O2190   2.383       .  S
Zr2185     O2191   2.379       .  S
Zr2186     O2187   2.405       .  S
Zr2186     O2189   2.403       .  S
Zr2186     O2192   2.404       .  S
O2187      H2195   0.966       .  S
O2190      H2194   0.965       .  S
O2191      H2196   0.965       .  S
C2209      C2210   1.407       .  A
C2209      C2214   1.384       .  A
C2209      H2216   1.084       .  S
C2210      C4541   1.484       .  S
C2210      C2211   1.409       .  A
C2211      C2212   1.407       .  A
C2211     Br4666   1.913       .  S
C2212      C2213   1.411       .  A
C2213      C2214   1.407       .  A
C2214     Br2215   1.923       .  S
Br2218     C4659   1.913   1_455  S
C2219      C2220   1.398       .  A
C2219      C2224   1.396       .  A
C2219      H2226   1.084       .  S
C2220      C2221   1.415       .  A
C2221      C2222   1.411       .  A
C2221     Br2228   1.917       .  S
C2222      C2223   1.404       .  A
C2222      H2227   1.083       .  S
C2223      C2224   1.413       .  A
C2224     Br2225   1.920       .  S
C2229      C2230   1.404       .  A
C2229      C2234   1.401       .  A
C2229      H2236   1.083       .  S
C2230      C2231   1.410       .  A
C2231      C2232   1.409       .  A
C2231     Br2238   1.917       .  S
C2232      C2233   1.408       .  A
C2232      H2237   1.084       .  S
C2233      C2234   1.409       .  A
C2234     Br2235   1.920       .  S
C2239      C2240   1.400       .  A
C2239      H2246   1.084       .  S
C2240      C2241   1.412       .  A
C2241      C2242   1.393       .  A
C2241     Br2248   1.921       .  S
C2242      H2247   1.084       .  S
C2243      C2244   1.411       .  A
C2244     Br2245   1.917       .  S
C2249      H2256   1.083       .  S
C2251     Br2258   1.919       .  S
C2252      C2253   1.410       .  A
C2252      H2257   1.083       .  S
C2253      C2254   1.411       .  A
C2254     Br2255   1.919       .  S
C2259      C2260   1.395       .  A
C2259      C2264   1.399       .  A
C2259      H2266   1.084       .  S
C2261      C2262   1.400       .  A
C2261     Br2268   1.909       .  S
C2262      C2263   1.404       .  A
C2262      H2267   1.083       .  S
C2264     Br2265   1.921       .  S
C2269      C2270   1.400       .  A
C2269      C2274   1.406       .  A
C2269      H2276   1.079       .  S
C2270      C2271   1.414       .  A
C2271      C2272   1.396       .  A
C2271     Br2278   1.920       .  S
C2272      C2273   1.400       .  A
C2272      H2277   1.083       .  S
C2273      C2274   1.416       .  A
C2279      C2280   1.403       .  A
C2279      C2284   1.409       .  A
C2279      H2286   1.084       .  S
C2280      C2281   1.414       .  A
C2281      C2282   1.405       .  A
C2281     Br2288   1.918       .  S
C2282      C2283   1.403       .  A
C2282      H2287   1.084       .  S
C2283      C2284   1.416       .  A
C2284     Br2285   1.910       .  S
C2289      C2290   1.414       .  A
C2289      C2294   1.421       .  A
C2289      H2296   1.083       .  S
C2290      C2291   1.417       .  A
C2291      C2292   1.390       .  A
C2291     Br2298   1.919       .  S
C2292      C2293   1.402       .  A
C2292      H2297   1.084       .  S
C2293      C2294   1.417       .  A
C2294     Br2295   1.915       .  S
C2299      C2300   1.403       .  A
C2299      C2304   1.400       .  A
C2299      H2306   1.084       .  S
C2300      C2301   1.404       .  A
C2301      C2302   1.386       .  A
C2301     Br2308   1.923       .  S
C2302      C2303   1.400       .  A
C2302      H2307   1.085       .  S
C2303      C4411   1.457       .  S
C2303      C2304   1.406       .  A
C2304     Br2305   1.915       .  S
C2309      C2310   1.400       .  A
C2309      H2316   1.084       .  S
C2310      C4759   1.409       .  A
C2311      C4758   1.409       .  A
C2311      C2312   1.396       .  A
C2311     Br2318   1.920       .  S
C2312      H2317   1.084       .  S
C2313      C4762   1.410       .  A
C2314      C4761   1.410   1_455  A
C2314     Br2315   1.912       .  S
C2319      C2320   1.404       .  A
C2319      C2324   1.410       .  A
C2319      H2326   1.083       .  S
C2320      C2321   1.417       .  A
C2321      C4770   1.405       .  A
C2321     Br4776   1.920       .  S
C2322      C4769   1.405   1_455  A
C2322      C2323   1.400       .  A
C2322      H2327   1.083       .  S
C2323      C4772   1.414   1_455  A
C2324      C4771   1.414       .  A
C2324     Br2325   1.913       .  S
Br2328     C4769   1.920   1_455  S
C2329      H2336   1.084       .  S
C2331     Br2338   1.918       .  S
C2332      C2333   1.412       .  A
C2332      H2337   1.084       .  S
C2333      C2334   1.412       .  A
C2334     Br2335   1.918       .  S
C2339      C2340   1.397       .  A
C2339      H2346   1.084       .  S
C2341      C2342   1.401       .  A
C2341     Br2348   1.909       .  S
C2342      C2343   1.404       .  A
C2342      H2347   1.083       .  S
C2343      C2344   1.422       .  A
C2344     Br2345   1.922       .  S
C2349      C2350   1.402       .  A
C2349      C2354   1.388       .  A
C2349      H2356   1.084       .  S
C2350      C2351   1.414       .  A
C2351      C2352   1.403       .  A
C2351     Br2358   1.919       .  S
C2352      C2353   1.404       .  A
C2352      H2357   1.083       .  S
C2353      C4352   1.474   1_455  S
C2353      C2354   1.408       .  A
C2354     Br2355   1.920   1_455  S
C2359      C2360   1.402       .  A
C2359      C2364   1.399       .  A
C2359      H2366   1.084       .  S
C2360      C2361   1.406       .  A
C2361      C2362   1.393       .  A
C2361     Br2368   1.916       .  S
C2362      C2363   1.400       .  A
C2362      H2367   1.084       .  S
C2363      C2364   1.408       .  A
C2364     Br2365   1.917       .  S
C2369      C2374   1.409       .  A
C2369      H2376   1.083       .  S
C2370      C4819   1.425       .  A
C2371      C4818   1.425       .  A
C2371      C2372   1.409   1_655  A
C2371     Br2378   1.920   1_655  S
C2372      H2377   1.083       .  S
C2373      C4822   1.428   1_455  A
C2374      C4821   1.428       .  A
C2374     Br2375   1.916       .  S
C2379      C2380   1.405       .  A
C2379      C4832   1.403       .  A
C2379      H2386   1.083       .  S
C2380      C2381   1.414       .  A
C2381      C4830   1.391       .  A
C2381     Br2388   1.920       .  S
C2382      C4829   1.391       .  A
C2382      C2383   1.405       .  A
C2382      H2387   1.083       .  S
C2383      C2384   1.420       .  A
C2384      C4827   1.403   1_455  A
C2384     Br2385   1.922       .  S
C2389      C2390   1.390       .  A
C2389      C2394   1.374       .  A
C2389      H2396   1.086       .  S
C2390      C2391   1.405       .  A
C2391      C2392   1.387       .  A
C2391     Br2398   1.920       .  S
C2392      C2393   1.400       .  A
C2393      C2394   1.407       .  A
C2394     Br2395   1.918       .  S
C2399      C2400   1.408       .  A
C2399      C2404   1.389       .  A
C2399      H2406   1.084       .  S
C2400      C2401   1.405       .  A
C2401      C2402   1.392       .  A
C2401     Br2408   1.921       .  S
C2402      C2403   1.410       .  A
C2402      H2407   1.084       .  S
C2403      C2404   1.407       .  A
C2404     Br2405   1.924       .  S
C2409      C2410   1.404       .  A
C2409      C2414   1.376       .  A
C2409      H2416   1.084       .  S
C2410      C4310   1.450   1_455  S
C2410      C2411   1.408       .  A
C2411      C2412   1.391       .  A
C2411     Br4866   1.921   1_455  S
C2412      C2413   1.400       .  A
C2413      C2414   1.397       .  A
C2414     Br2415   1.920       .  S
Br2418     C4859   1.921       .  S
C2419      C2420   1.400       .  A
C2419      C2424   1.397       .  A
C2419      H2426   1.084       .  S
C2420      C2421   1.402       .  A
C2421      C2422   1.392       .  A
C2421     Br2428   1.920       .  S
C2422      C2423   1.405       .  A
C2422      H2427   1.084       .  S
C2423      C2424   1.408       .  A
C2424     Br2425   1.913       .  S
C2429      C2434   1.409       .  A
C2429      H2436   1.083       .  S
C2430      C2431   1.424       .  A
C2431     Br2438   1.918       .  S
C2432      C2433   1.399       .  A
C2432      H2437   1.083       .  S
C2433      C2434   1.426       .  A
C2434     Br2435   1.915       .  S
C2439      C2440   1.408       .  A
C2439      C2444   1.400       .  A
C2439      H2446   1.083       .  S
C2440      C2441   1.415       .  A
C2441      C2442   1.400       .  A
C2441     Br2448   1.922       .  S
C2442      C2443   1.404       .  A
C2442      H2447   1.084       .  S
C2443      C2444   1.408       .  A
C2444     Br2445   1.919       .  S
O2449     Zr2461   2.450       .  S
O2449      C2451   1.289       .  A
O2450     Zr2487   2.419       .  S
O2450      C2451   1.286       .  A
C2451      C3055   1.479       .  S
O2452     Zr2464   2.373       .  S
O2452      C2454   1.275       .  A
O2453     Zr2488   2.533       .  S
O2453      C2454   1.307       .  A
C2454      C3042   1.498       .  S
O2455     Zr2464   2.375       .  S
O2455      C2457   1.276       .  A
O2456     Zr2487   2.397       .  S
O2456      C2457   1.280       .  A
C2457      C3002   1.418       .  S
O2458     Zr2461   2.410       .  S
O2458      C2460   1.284       .  A
O2459     Zr2488   2.440       .  S
O2459      C2460   1.291       .  A
C2460      C3035   1.467       .  S
Zr2461     O2462   2.435       .  S
Zr2461     O2463   2.436       .  S
Zr2461     O2467   2.358       .  S
Zr2461     O2468   2.376       .  S
Zr2461     O2491   2.364       .  S
Zr2461     O2493   2.365       .  S
O2462      H2505   0.990       .  S
O2463      H2504   0.990       .  S
O2463      H2508   0.990       .  S
Zr2464     O2465   2.432       .  S
Zr2464     O2466   2.434       .  S
Zr2464     O2468   2.356       .  S
Zr2464     O2467   2.360       .  S
Zr2464     O2492   2.345       .  S
Zr2464     O2494   2.373       .  S
O2465      H2506   0.989       .  S
O2465      H2509   0.990       .  S
O2466      H2499   0.990       .  S
O2467     Zr2487   2.370       .  S
O2468     Zr2488   2.398       .  S
O2468      H2495   0.965       .  S
O2469     Zr2481   2.404       .  S
O2469      C2471   1.283       .  A
O2470     Zr2488   2.425       .  S
O2470      C2471   1.288       .  A
C2471      C3015   1.470       .  S
O2472     Zr2484   2.378       .  S
O2472      C2474   1.278       .  A
O2473     Zr2487   2.399       .  S
O2473      C2474   1.280       .  A
O2475     Zr2484   2.361       .  S
O2475      C2477   1.272       .  A
O2476     Zr2488   2.537       .  S
O2476      C2477   1.308       .  A
C2477      C2982   1.498       .  S
O2478     Zr2481   2.455       .  S
O2478      C2480   1.291       .  A
O2479     Zr2487   2.405       .  S
O2479      C2480   1.282       .  A
C2480      C2992   1.485       .  S
Zr2481     O2482   2.437       .  S
Zr2481     O2483   2.434       .  S
Zr2481     O2489   2.378       .  S
Zr2481     O2490   2.347       .  S
Zr2481     O2493   2.362       .  S
Zr2481     O2491   2.369       .  S
O2482      H2502   0.990       .  S
O2482      H2507   0.990       .  S
O2483      H2503   0.990       .  S
Zr2484     O2485   2.432   1_655  S
Zr2484     O2486   2.435       .  S
Zr2484     O2490   2.355       .  S
Zr2484     O2489   2.350       .  S
Zr2484     O2494   2.371       .  S
Zr2484     O2492   2.327       .  S
O2486      H2500   0.990       .  S
O2486      H2510   0.990       .  S
Zr2487     O2490   2.372       .  S
Zr2487     O2492   2.378       .  S
Zr2487     O2493   2.376       .  S
Zr2488     O2489   2.402       .  S
Zr2488     O2491   2.415       .  S
Zr2488     O2494   2.377       .  S
O2489      H2497   0.965       .  S
O2492      H2496   0.965       .  S
O2493      H2498   0.966       .  S
O2511     Zr2523   2.403       .  S
O2511      C2513   1.282       .  A
O2512     Zr2549   2.421       .  S
O2512      C2513   1.286       .  A
C2513      C3012   1.467       .  S
O2514     Zr2526   2.428       .  S
O2514      C2516   1.286       .  A
O2515     Zr2550   2.425       .  S
O2515      C2516   1.286       .  A
O2517     Zr2526   2.401       .  S
O2517      C2519   1.280       .  A
O2518     Zr2549   2.494       .  S
O2518      C2519   1.299       .  A
C2519      C2932   1.490       .  S
O2520     Zr2523   2.397       .  S
O2520      C2522   1.279       .  A
O2521     Zr2550   2.472       .  S
O2521      C2522   1.296       .  A
C2522      C2925   1.469       .  S
Zr2523     O2524   2.434       .  S
Zr2523     O2525   2.435       .  S
Zr2523     O2529   2.373       .  S
Zr2523     O2530   2.367       .  S
Zr2523     O2553   2.386       .  S
Zr2523     O2555   2.357       .  S
O2524      H2567   0.990       .  S
O2525      H2566   0.990       .  S
O2525      H2570   0.990       .  S
Zr2526     O2527   2.437   1_655  S
Zr2526     O2528   2.433       .  S
Zr2526     O2530   2.349       .  S
Zr2526     O2529   2.370       .  S
Zr2526     O2554   2.370       .  S
Zr2526     O2556   2.347       .  S
O2527      H2568   0.990       .  S
O2528      H2561   0.990       .  S
O2529     Zr2549   2.382       .  S
O2530     Zr2550   2.383       .  S
O2530      H2557   0.964       .  S
O2531     Zr2543   2.490       .  S
O2531      C2533   1.295       .  A
O2532     Zr2550   2.460       .  S
O2532      C2533   1.294       .  A
C2533      C2942   1.510   1_545  S
O2534     Zr2546   2.403       .  S
O2534      C2536   1.271       .  A
O2535     Zr2549   2.461       .  S
O2535      C2536   1.288       .  A
C2536      C2955   1.489       .  S
O2537     Zr2546   2.383       .  S
O2537      C2539   1.278   1_545  A
O2538     Zr2550   2.390       .  S
O2538      C2539   1.281   1_545  A
C2539      C4229   1.440       .  S
O2540     Zr2543   2.440       .  S
O2540      C2542   1.289       .  A
O2541     Zr2549   2.420       .  S
O2541      C2542   1.287       .  A
C2542      C2975   1.462       .  S
Zr2543     O2544   2.437       .  S
Zr2543     O2545   2.434       .  S
Zr2543     O2551   2.358       .  S
Zr2543     O2552   2.380       .  S
Zr2543     O2555   2.378       .  S
Zr2543     O2553   2.377       .  S
O2544      H2564   0.990       .  S
O2544      H2569   0.990       .  S
O2545      H2565   0.990       .  S
Zr2546     O3771   2.428   1_545  S
Zr2546     O2548   2.435       .  S
Zr2546     O2552   2.338       .  S
Zr2546     O2551   2.354       .  S
Zr2546     O2556   2.359       .  S
Zr2546     O2554   2.362       .  S
O2547     Zr3770   2.428       .  S
O2547      H3787   0.990       .  S
O2548      H2562   0.990       .  S
O2548      H2572   0.990       .  S
Zr2549     O2552   2.395       .  S
Zr2549     O2554   2.385       .  S
Zr2549     O2555   2.413       .  S
Zr2550     O2551   2.395       .  S
Zr2550     O2553   2.384       .  S
Zr2550     O2556   2.388       .  S
O2551      H2559   0.964       .  S
O2554      H2558   0.966       .  S
O2555      H2560   0.966       .  S
H2563      O3771   0.990       .  S
O2573     Zr2585   2.416       .  S
O2573      C2575   1.284       .  A
O2574     Zr2611   2.423       .  S
O2574      C2575   1.285       .  A
O2576     Zr2588   2.416       .  S
O2576      C2578   1.283       .  A
O2577     Zr2612   2.492       .  S
O2577      C2578   1.300       .  A
C2578      C2892   1.489       .  S
O2579     Zr2588   2.439       .  S
O2579      C2581   1.285       .  A
O2580     Zr2611   2.414       .  S
O2580      C2581   1.287       .  A
C2581      C2995   1.493       .  S
O2582     Zr2585   2.409       .  S
O2582      C2584   1.282       .  A
O2583     Zr2612   2.526       .  S
O2583      C2584   1.307       .  A
C2584      C2985   1.509       .  S
Zr2585     O2587   2.435       .  S
Zr2585     O2591   2.360       .  S
Zr2585     O2592   2.370       .  S
Zr2585     O2615   2.369       .  S
Zr2585     O2617   2.361       .  S
O2586      H2629   0.990       .  S
O2587      H2628   0.990       .  S
O2587      H2632   0.990       .  S
Zr2588     O2589   2.436       .  S
Zr2588     O2590   2.435       .  S
Zr2588     O2592   2.367       .  S
Zr2588     O2591   2.358       .  S
Zr2588     O2616   2.367       .  S
Zr2588     O2618   2.373       .  S
O2589      H2630   0.990       .  S
O2589      H2633   0.990       .  S
O2590      H2623   0.990       .  S
O2591     Zr2611   2.375       .  S
O2592     Zr2612   2.403       .  S
O2592      H2619   0.965       .  S
O2593     Zr2605   2.390       .  S
O2593      C2595   1.278       .  A
O2594     Zr2612   2.525       .  S
O2594      C2595   1.307       .  A
C2595      C2865   1.492       .  S
O2596     Zr2608   2.438       .  S
O2596      C2598   1.286       .  A
O2597     Zr2611   2.436       .  S
O2597      C2598   1.289       .  A
C2598      C2872   1.471       .  S
O2599     Zr2608   2.428       .  S
O2599      C2601   1.286       .  A
O2600     Zr2612   2.489       .  S
O2600      C2601   1.299       .  A
C2601      C2902   1.503       .  S
O2602     Zr2605   2.471       .  S
O2602      C2604   1.294       .  A
O2603     Zr2611   2.418       .  S
O2603      C2604   1.284       .  A
C2604      C4109   1.486       .  S
Zr2605     O2606   2.436       .  S
Zr2605     O2607   2.434       .  S
Zr2605     O2613   2.383       .  S
Zr2605     O2614   2.348       .  S
Zr2605     O2617   2.342       .  S
Zr2605     O2615   2.395       .  S
O2606      H2626   0.990       .  S
O2606      H3855   0.990       .  S
O2607      H2627   0.990       .  S
Zr2608     O2609   2.432       .  S
Zr2608     O2610   2.434       .  S
Zr2608     O2614   2.358       .  S
Zr2608     O2613   2.373       .  S
Zr2608     O2618   2.369       .  S
Zr2608     O2616   2.373       .  S
O2609      H2625   0.990       .  S
O2610      H2624   0.990       .  S
O2610      H2634   0.990       .  S
Zr2611     O2614   2.367       .  S
Zr2611     O2616   2.385       .  S
Zr2611     O2617   2.381       .  S
Zr2612     O2613   2.414       .  S
Zr2612     O2615   2.405       .  S
Zr2612     O2618   2.407       .  S
O2613      H2621   0.966       .  S
O2616      H2620   0.966       .  S
O2617      H2622   0.965       .  S
H2631      O3830   0.990       .  S
O2635     Zr2647   2.407       .  S
O2635      C2637   1.280       .  A
O2636     Zr2673   2.482       .  S
O2636      C2637   1.297       .  A
C2637      C2845   1.479       .  S
O2638     Zr2650   2.404       .  S
O2638      C2640   1.279       .  A
O2639     Zr2674   2.460       .  S
O2639      C2640   1.294       .  A
C2640      C2855   1.463       .  S
O2641     Zr2650   2.410       .  S
O2641      C2643   1.282       .  A
O2642     Zr2673   2.427       .  S
O2642      C2643   1.287       .  A
C2643      C3032   1.453       .  S
O2644     Zr2647   2.442       .  S
O2644      C2646   1.290       .  A
O2645     Zr2674   2.410       .  S
O2645      C2646   1.282       .  A
C2646      C2962   1.475       .  S
Zr2647     O2648   2.435       .  S
Zr2647     O2649   2.437       .  S
Zr2647     O2653   2.373       .  S
Zr2647     O2654   2.347       .  S
Zr2647     O2677   2.343       .  S
Zr2647     O2679   2.376       .  S
O2648      H2691   0.990       .  S
O2649      H2690   0.990       .  S
O2649      H2694   0.990       .  S
Zr2650     O2651   2.437       .  S
Zr2650     O2652   2.435       .  S
Zr2650     O2654   2.369       .  S
Zr2650     O2653   2.374       .  S
Zr2650     O2678   2.359       .  S
Zr2650     O2680   2.388       .  S
O2651      H2692   0.990       .  S
O2651      H2695   0.990       .  S
O2652      H2685   0.990       .  S
O2653     Zr2673   2.385       .  S
O2654     Zr2674   2.386       .  S
O2654      H2681   0.964       .  S
O2655     Zr2667   2.377       .  S
O2655      C2657   1.274       .  A
O2656     Zr2674   2.398       .  S
O2656      C2657   1.280       .  A
C2657      C4249   1.424   1_545  S
O2658     Zr2670   2.443       .  S
O2658      C2660   1.290       .  A
O2659     Zr2673   2.419       .  S
O2659      C2660   1.287       .  A
C2660      C2972   1.464       .  S
O2661     Zr2670   2.481       .  S
O2661      C2663   1.294       .  A
O2662     Zr2674   2.456       .  S
O2662      C2663   1.294       .  A
C2663      C2862   1.511       .  S
O2664     Zr2667   2.403       .  S
O2664      C2666   1.271       .  A
O2665     Zr2673   2.460       .  S
O2665      C2666   1.288       .  A
C2666      C2875   1.487       .  S
Zr2667     O3892   2.437   1_545  S
Zr2667     O2669   2.436       .  S
Zr2667     O2675   2.364       .  S
Zr2667     O2676   2.343       .  S
Zr2667     O2679   2.358       .  S
Zr2667     O2677   2.354       .  S
O2668     Zr3891   2.437       .  S
O2668      H2688   0.990       .  S
O2668      H2693   0.990       .  S
O2669      H2689   0.990       .  S
Zr2670     O2671   2.433       .  S
Zr2670     O2672   2.434       .  S
Zr2670     O2676   2.374       .  S
Zr2670     O2675   2.365       .  S
Zr2670     O2680   2.377       .  S
Zr2670     O2678   2.381       .  S
O2671      H2687   0.990       .  S
O2672      H2686   0.990       .  S
O2672      H2696   0.990       .  S
Zr2673     O2676   2.393       .  S
Zr2673     O2678   2.408       .  S
Zr2673     O2679   2.389       .  S
Zr2674     O2675   2.393       .  S
Zr2674     O2677   2.384       .  S
Zr2674     O2680   2.382       .  S
O2675      H2683   0.965       .  S
O2678      H2682   0.966       .  S
O2679      H2684   0.965       .  S
O2697     Zr2709   2.469       .  S
O2697      C2699   1.293       .  A
O2698     Zr2735   2.454       .  S
O2698      C2699   1.294       .  A
C2699      C2935   1.490       .  S
O2700     Zr2712   2.377       .  S
O2700      C2702   1.275       .  A
O2701     Zr2736   2.457       .  S
O2701      C2702   1.291       .  A
C2702      C2922   1.459       .  S
O2703     Zr2712   2.383       .  S
O2703      C2705   1.279       .  A
O2704     Zr2735   2.462       .  S
O2704      C2705   1.291       .  A
O2706     Zr2709   2.488       .  S
O2706      C2708   1.298       .  A
O2707     Zr2736   2.432       .  S
O2707      C2708   1.288       .  A
C2708      C2895   1.496       .  S
Zr2709     O2710   2.434       .  S
Zr2709     O2711   2.434       .  S
Zr2709     O2715   2.373       .  S
Zr2709     O2716   2.377       .  S
Zr2709     O2739   2.371       .  S
Zr2709     O2741   2.396       .  S
O2710      H2753   0.990       .  S
O2711      H2752   0.990       .  S
O2711      H2756   0.990       .  S
Zr2712     O2714   2.435       .  S
Zr2712     O2716   2.362       .  S
Zr2712     O2715   2.345       .  S
Zr2712     O2740   2.356       .  S
Zr2712     O2742   2.360       .  S
O2713      H2754   0.990       .  S
O2713      H2757   0.990       .  S
O2714      H2747   0.990       .  S
O2715     Zr2735   2.387       .  S
O2716     Zr2736   2.392       .  S
O2716      H2743   0.966       .  S
O2717     Zr2729   2.482       .  S
O2717      C2719   1.295       .  A
O2718     Zr2736   2.415       .  S
O2718      C2719   1.284       .  A
C2719      C2832   1.483       .  S
O2720     Zr2732   2.393       .  S
O2720      C2722   1.279       .  A
O2721     Zr2735   2.477       .  S
O2721      C2722   1.296       .  A
C2722      C2882   1.484       .  S
O2723     Zr2732   2.377       .  S
O2723      C2725   1.276       .  A
O2724     Zr2736   2.458       .  S
O2724      C2725   1.291       .  A
C2725      C2852   1.464       .  S
O2726     Zr2729   2.468       .  S
O2726      C2728   1.293       .  A
O2727     Zr2735   2.440       .  S
O2727      C2728   1.292       .  A
C2728      C2842   1.487       .  S
Zr2729     O2730   2.437       .  S
Zr2729     O2731   2.434       .  S
Zr2729     O2737   2.379       .  S
Zr2729     O2738   2.368       .  S
Zr2729     O2741   2.392       .  S
Zr2729     O2739   2.372       .  S
O2730      H2750   0.990       .  S
O2730      H2755   0.990       .  S
O2731      H2751   0.990       .  S
Zr2732     O2733   2.432       .  S
Zr2732     O2734   2.436       .  S
Zr2732     O2738   2.341       .  S
Zr2732     O2737   2.362       .  S
Zr2732     O2742   2.361       .  S
Zr2732     O2740   2.357       .  S
O2733      H2749   0.990       .  S
O2734      H2748   0.990       .  S
O2734      H2758   0.990       .  S
Zr2735     O2738   2.380       .  S
Zr2735     O2740   2.379       .  S
Zr2735     O2741   2.423       .  S
Zr2736     O2737   2.394       .  S
Zr2736     O2739   2.402       .  S
Zr2736     O2742   2.375       .  S
O2737      H2745   0.966       .  S
O2740      H2744   0.966       .  S
O2741      H2746   0.966       .  S
O2759     Zr2771   2.450       .  S
O2759      C2761   1.288       .  A
O2760     Zr2797   2.438       .  S
O2760      C2761   1.289       .  A
C2761      C2952   1.477       .  S
O2762     Zr2774   2.412       .  S
O2762      C2764   1.283       .  A
O2763     Zr2798   2.488       .  S
O2763      C2764   1.299       .  A
C2764      C2835   1.481       .  S
O2765     Zr2774   2.451       .  S
O2765      C2767   1.290       .  A
O2766     Zr2797   2.422       .  S
O2766      C2767   1.286       .  A
C2767      C3052   1.487       .  S
O2768     Zr2771   2.427       .  S
O2768      C2770   1.288       .  A
O2769     Zr2798   2.476       .  S
O2769      C2770   1.295       .  A
C2770      C2905   1.502       .  S
Zr2771     O2772   2.434       .  S
Zr2771     O2773   2.435       .  S
Zr2771     O2777   2.376       .  S
Zr2771     O2778   2.359       .  S
Zr2771     O2801   2.375       .  S
Zr2771     O2803   2.359       .  S
O2772      H2815   0.990       .  S
O2773      H2814   0.990       .  S
O2773      H2818   0.990       .  S
Zr2774     O2775   2.434       .  S
Zr2774     O2776   2.435       .  S
Zr2774     O2778   2.379       .  S
Zr2774     O2777   2.372       .  S
Zr2774     O2802   2.355       .  S
Zr2774     O2804   2.379       .  S
O2775      H2816   0.989       .  S
O2775      H2819   0.990       .  S
O2776      H2809   0.990       .  S
O2777     Zr2797   2.379       .  S
O2778     Zr2798   2.416       .  S
O2778      H2805   0.964       .  S
O2779     Zr2791   2.381       .  S
O2779      C2781   1.276       .  A
O2780     Zr2798   2.536       .  S
O2780      C2781   1.309       .  A
C2781      C2945   1.495       .  S
O2782     Zr2794   2.420       .  S
O2782      C2784   1.285       .  A
O2783     Zr2797   2.414       .  S
O2783      C2784   1.283       .  A
C2784      C2912   1.455       .  S
O2785     Zr2794   2.409       .  S
O2785      C2787   1.282       .  A
O2786     Zr2798   2.513       .  S
O2786      C2787   1.305       .  A
C2787      C3045   1.508       .  S
O2788     Zr2791   2.447       .  S
O2788      C2790   1.290       .  A
O2789     Zr2797   2.407       .  S
O2789      C2790   1.283       .  A
C2790      C4049   1.477       .  S
Zr2791     O2792   2.436       .  S
Zr2791     O2793   2.432       .  S
Zr2791     O2799   2.385       .  S
Zr2791     O2800   2.341       .  S
Zr2791     O2803   2.350       .  S
Zr2791     O2801   2.375       .  S
O2792      H2812   0.990       .  S
O2792      H2817   0.990       .  S
O2793      H2813   0.990       .  S
Zr2794     O2795   2.434       .  S
Zr2794     O2796   2.432       .  S
Zr2794     O2800   2.357       .  S
Zr2794     O2799   2.369       .  S
Zr2794     O2804   2.367       .  S
Zr2794     O2802   2.354       .  S
O2795      H2811   0.990       .  S
O2796      H2810   0.989       .  S
O2796      H2820   0.990       .  S
Zr2797     O2800   2.381       .  S
Zr2797     O2802   2.383       .  S
Zr2797     O2803   2.379       .  S
Zr2798     O2799   2.405       .  S
Zr2798     O2801   2.403       .  S
Zr2798     O2804   2.404       .  S
O2799      H2807   0.966       .  S
O2802      H2806   0.965       .  S
O2803      H2808   0.965       .  S
C2821      C2822   1.407       .  A
C2821      C2826   1.384       .  A
C2821      H2828   1.084       .  S
C2822      C2823   1.409       .  A
C2823      C2824   1.407       .  A
C2824      C2825   1.411       .  A
C2824      H4053   1.083       .  S
C2825      C4014   1.477   1_545  S
C2825      C2826   1.407       .  A
C2826     Br2827   1.923       .  S
H2829      C4048   1.083       .  S
C2831      C2832   1.398       .  A
C2831      C2836   1.396       .  A
C2831      H2838   1.084       .  S
C2832      C2833   1.415       .  A
C2833      C2834   1.411       .  A
C2833     Br2840   1.917       .  S
C2834      C2835   1.404       .  A
C2834      H2839   1.083       .  S
C2835      C2836   1.413       .  A
C2836     Br2837   1.920       .  S
C2841      C2842   1.404       .  A
C2841      C2846   1.401       .  A
C2841      H2848   1.083       .  S
C2842      C2843   1.410       .  A
C2843      C2844   1.409       .  A
C2843     Br2850   1.917       .  S
C2844      C2845   1.408       .  A
C2844      H2849   1.084       .  S
C2845      C2846   1.409       .  A
C2846     Br2847   1.920       .  S
C2851      C2852   1.400       .  A
C2851      C3468   1.400   1_554  A
C2851      H2858   1.084       .  S
C2852      C2853   1.412       .  A
C2853      C2854   1.393       .  A
C2853     Br2860   1.921       .  S
C2854      C3467   1.397   1_554  A
C2854      H2859   1.084       .  S
C2855      C3466   1.397       .  A
C2855      C2856   1.411       .  A
C2856      C3463   1.400       .  A
C2856     Br2857   1.917       .  S
C2861      C4086   1.409       .  A
C2861      C3478   1.406       .  A
C2861      H2868   1.083       .  S
C2862      C4085   1.409   1_545  A
C2862      C3475   1.418   1_545  A
C2863      C3474   1.418   1_565  A
C2863      C4088   1.416   1_556  A
C2863     Br2870   1.919   1_565  S
C2864      C4087   1.416   1_554  A
C2864      C2865   1.410       .  A
C2864      H2869   1.083       .  S
C2865      C2866   1.411   1_554  A
C2866      C3473   1.406       .  A
C2866     Br2867   1.919       .  S
C2871      C2872   1.395       .  A
C2871      C2876   1.399       .  A
C2871      H2878   1.084       .  S
C2872      C4097   1.406       .  A
C2873      C4096   1.406   1_545  A
C2873      C2874   1.400       .  A
C2873     Br2880   1.909       .  S
C2874      C2875   1.404       .  A
C2874      H2879   1.083       .  S
C2875      C4100   1.422   1_545  A
C2876      C4099   1.422       .  A
C2876     Br2877   1.921       .  S
C2881      C2882   1.400       .  A
C2881      C2886   1.406       .  A
C2881      H2888   1.079       .  S
C2882      C2883   1.414       .  A
C2883      C2884   1.396       .  A
C2883     Br2890   1.920       .  S
C2884      C2885   1.400       .  A
C2884      H2889   1.083       .  S
C2885      C3828   1.486   1_545  S
C2885      C2886   1.416       .  A
C2886     Br4111   1.913   1_545  S
Br2887     C4110   1.913       .  S
C2891      C2892   1.403       .  A
C2891      C2896   1.409       .  A
C2891      H2898   1.084       .  S
C2892      C2893   1.414       .  A
C2893      C2894   1.405       .  A
C2893     Br2900   1.918       .  S
C2894      C2895   1.403       .  A
C2894      H2899   1.084       .  S
C2895      C2896   1.416       .  A
C2896     Br2897   1.910       .  S
C2901      C2902   1.413       .  A
C2901      C2906   1.421       .  A
C2901      H2908   1.083       .  S
C2902      C2903   1.417       .  A
C2903      C2904   1.389       .  A
C2903     Br2910   1.919       .  S
C2904      C2905   1.402       .  A
C2904      H2909   1.084       .  S
C2905      C2906   1.417       .  A
C2906     Br2907   1.915       .  S
C2911      C2912   1.403       .  A
C2911      C2916   1.400       .  A
C2911      H2918   1.084       .  S
C2912      C2913   1.404       .  A
C2913      C2914   1.386       .  A
C2913     Br2920   1.923       .  S
C2914      C2915   1.400       .  A
C2914      H2919   1.085       .  S
C2915      C2916   1.406       .  A
C2916     Br2917   1.915       .  S
C2921      C2922   1.400       .  A
C2921      C3538   1.399   1_554  A
C2921      H2928   1.084       .  S
C2923      C2924   1.396   1_455  A
C2923     Br2930   1.920   1_455  S
C2924      C3537   1.402   1_554  A
C2924      H2929   1.084       .  S
C2925      C3536   1.402       .  A
C2926      C3533   1.399       .  A
C2926     Br2927   1.912       .  S
C2931      C2932   1.404       .  A
C2931      C2936   1.410       .  A
C2931      H2938   1.083       .  S
C2932      C2933   1.417       .  A
C2934      C2935   1.400       .  A
C2934      H2939   1.083       .  S
C2936     Br2937   1.913       .  S
C2941      C4166   1.410       .  A
C2941      C3558   1.411       .  A
C2941      H2948   1.084       .  S
C2942      C4165   1.410       .  A
C2942      C3555   1.415       .  A
C2943      C3554   1.415       .  A
C2943      C4168   1.415   1_556  A
C2943     Br2950   1.918   1_566  S
C2944      C4167   1.415   1_554  A
C2944      C2945   1.412       .  A
C2944      H2949   1.084       .  S
C2945      C2946   1.412   1_554  A
C2946      C3553   1.411       .  A
C2946     Br2947   1.918       .  S
C2951      C2952   1.397       .  A
C2951      C4180   1.401       .  A
C2951      H2958   1.084       .  S
C2952      C4177   1.408       .  A
C2953      C4176   1.408   1_545  A
C2953      C2954   1.401       .  A
C2953     Br2960   1.909       .  S
C2954      C2955   1.404       .  A
C2954      H2959   1.083       .  S
C2955      C2956   1.422       .  A
C2956      C4175   1.401   1_545  A
C2956     Br2957   1.922   1_545  S
C2961      C2962   1.402       .  A
C2961      C2966   1.388       .  A
C2961      H2968   1.084       .  S
C2962      C2963   1.414       .  A
C2963      C2964   1.403       .  A
C2963     Br2970   1.919       .  S
C2964      C2965   1.404       .  A
C2964      H2969   1.083       .  S
C2965      C2966   1.408       .  A
C2966     Br2967   1.920       .  S
C2971      C2972   1.402       .  A
C2971      C2976   1.399       .  A
C2971      H2978   1.084       .  S
C2972      C2973   1.406       .  A
C2973      C2974   1.393       .  A
C2973     Br2980   1.915       .  S
C2974      C2975   1.400       .  A
C2974      H2979   1.084       .  S
C2975      C2976   1.408       .  A
C2976     Br2977   1.917       .  S
C2981      C3594   1.396   1_554  A
C2981      C2986   1.409       .  A
C2981      H2988   1.083       .  S
C2982      C3593   1.396       .  A
C2983      C2984   1.409       .  A
C2983     Br2990   1.920       .  S
C2984      C3597   1.400       .  A
C2984      H2989   1.083       .  S
C2985      C3596   1.400   1_554  A
C2986     Br2987   1.916       .  S
C2991      C2992   1.405       .  A
C2991      H2998   1.083       .  S
C2992      C2993   1.414   1_655  A
C2993     Br3000   1.920       .  S
C2994      C2995   1.405       .  A
C2994      H2999   1.083       .  S
C2995      C2996   1.420       .  A
C2996     Br2997   1.922       .  S
C3001      C3002   1.390       .  A
C3001      C3006   1.374       .  A
C3001      H3008   1.086       .  S
C3002      C3003   1.405       .  A
C3003      C3004   1.387       .  A
C3003     Br3010   1.920       .  S
C3004      C3005   1.400       .  A
C3004      H4233   1.084       .  S
C3005      C3763   1.440       .  S
C3005      C3006   1.407       .  A
C3006     Br3007   1.918       .  S
H3009      C4228   1.084       .  S
C3011      C3012   1.408       .  A
C3011      C3016   1.389       .  A
C3011      H3018   1.084       .  S
C3012      C3013   1.405       .  A
C3013      C3014   1.392       .  A
C3013     Br3020   1.921       .  S
C3014      C3015   1.410       .  A
C3014      H3019   1.084       .  S
C3015      C3016   1.407       .  A
C3016     Br3017   1.924       .  S
C3021      C3022   1.404       .  A
C3021      C3026   1.376       .  A
C3021      H3028   1.084       .  S
C3022      C3023   1.408       .  A
C3023      C3024   1.391       .  A
C3024      C3025   1.400       .  A
C3024      H4253   1.084       .  S
C3025      C3881   1.424       .  S
C3025      C3026   1.397       .  A
C3026     Br3027   1.920       .  S
H3029      C4248   1.084       .  S
C3031      C3032   1.400       .  A
C3031      C3036   1.397       .  A
C3031      H3038   1.084       .  S
C3032      C3033   1.402       .  A
C3033      C3034   1.392       .  A
C3033     Br3040   1.920       .  S
C3034      C3035   1.405       .  A
C3034      H3039   1.084       .  S
C3035      C3036   1.408       .  A
C3036     Br3037   1.913       .  S
C3041      C3654   1.397   1_554  A
C3041      C3046   1.409       .  A
C3041      H3048   1.083       .  S
C3042      C3653   1.397       .  A
C3042      C3043   1.424       .  A
C3043      C3656   1.407       .  A
C3043     Br3050   1.918       .  S
C3044      C3655   1.407       .  A
C3044      C3045   1.399   1_556  A
C3044      H3049   1.083       .  S
C3045      C3046   1.427       .  A
C3046     Br3047   1.915       .  S
C3051      C3052   1.408       .  A
C3051      C3056   1.400       .  A
C3051      H3058   1.083       .  S
C3052      C3053   1.415       .  A
C3053      C3054   1.400       .  A
C3053     Br3060   1.922       .  S
C3054      C3055   1.404       .  A
C3054      H3059   1.084       .  S
C3055      C3056   1.409       .  A
C3056     Br3057   1.919       .  S
O3061     Zr3073   2.450       .  S
O3061      C3063   1.289       .  A
O3062     Zr3099   2.419       .  S
O3062      C3063   1.286       .  A
C3063      C3667   1.479       .  S
O3064     Zr3076   2.373       .  S
O3064      C3066   1.275       .  A
O3065     Zr3100   2.533       .  S
O3065      C3066   1.307       .  A
C3066      C3654   1.498       .  S
O3067     Zr3076   2.375       .  S
O3067      C3069   1.276       .  A
O3068     Zr3099   2.397       .  S
O3068      C3069   1.280       .  A
C3069      C3614   1.418       .  S
O3070     Zr3073   2.410       .  S
O3070      C3072   1.284       .  A
O3071     Zr3100   2.440       .  S
O3071      C3072   1.291       .  A
C3072      C3647   1.467       .  S
Zr3073     O3074   2.435       .  S
Zr3073     O3075   2.436       .  S
Zr3073     O3079   2.358       .  S
Zr3073     O3080   2.376       .  S
Zr3073     O3103   2.364       .  S
Zr3073     O3105   2.365       .  S
O3074      H3117   0.990       .  S
O3075      H3116   0.990       .  S
O3075      H3120   0.990       .  S
Zr3076     O3077   2.432       .  S
Zr3076     O3078   2.434       .  S
Zr3076     O3080   2.356       .  S
Zr3076     O3079   2.360       .  S
Zr3076     O3104   2.345       .  S
Zr3076     O3106   2.373       .  S
O3077      H3118   0.989       .  S
O3077      H3121   0.990       .  S
O3078      H3111   0.990       .  S
O3079     Zr3099   2.370       .  S
O3080     Zr3100   2.398       .  S
O3080      H3107   0.965       .  S
O3081     Zr3093   2.404       .  S
O3081      C3083   1.283       .  A
O3082     Zr3100   2.425       .  S
O3082      C3083   1.288       .  A
C3083      C3627   1.470       .  S
O3084     Zr3096   2.378       .  S
O3084      C3086   1.278       .  A
O3085     Zr3099   2.399       .  S
O3085      C3086   1.280       .  A
O3087     Zr3096   2.361       .  S
O3087      C3089   1.272       .  A
O3088     Zr3100   2.537       .  S
O3088      C3089   1.308       .  A
C3089      C3594   1.498       .  S
O3090     Zr3093   2.455       .  S
O3090      C3092   1.291       .  A
O3091     Zr3099   2.405       .  S
O3091      C3092   1.282       .  A
C3092      C3604   1.485       .  S
Zr3093     O3094   2.437       .  S
Zr3093     O3095   2.434       .  S
Zr3093     O3101   2.378       .  S
Zr3093     O3102   2.347       .  S
Zr3093     O3105   2.362       .  S
Zr3093     O3103   2.370       .  S
O3094      H3114   0.990       .  S
O3094      H3119   0.990       .  S
O3095      H3115   0.990       .  S
Zr3096     O3097   2.432   1_655  S
Zr3096     O3098   2.435       .  S
Zr3096     O3102   2.355       .  S
Zr3096     O3101   2.350       .  S
Zr3096     O3106   2.371       .  S
Zr3096     O3104   2.327       .  S
O3098      H3112   0.990       .  S
O3098      H3122   0.990       .  S
Zr3099     O3102   2.372       .  S
Zr3099     O3104   2.378       .  S
Zr3099     O3105   2.376       .  S
Zr3100     O3101   2.402       .  S
Zr3100     O3103   2.415       .  S
Zr3100     O3106   2.377       .  S
O3101      H3109   0.965       .  S
O3104      H3108   0.965       .  S
O3105      H3110   0.966       .  S
O3123     Zr3135   2.403       .  S
O3123      C3125   1.282       .  A
O3124     Zr3161   2.421       .  S
O3124      C3125   1.286       .  A
C3125      C3624   1.467       .  S
O3126     Zr3138   2.429       .  S
O3126      C3128   1.286       .  A
O3127     Zr3162   2.425       .  S
O3127      C3128   1.286       .  A
O3129     Zr3138   2.400       .  S
O3129      C3131   1.280       .  A
O3130     Zr3161   2.494       .  S
O3130      C3131   1.299       .  A
C3131      C3544   1.490       .  S
O3132     Zr3135   2.397       .  S
O3132      C3134   1.279       .  A
O3133     Zr3162   2.471       .  S
O3133      C3134   1.296       .  A
C3134      C3537   1.469       .  S
Zr3135     O3136   2.434       .  S
Zr3135     O3137   2.435       .  S
Zr3135     O3141   2.373       .  S
Zr3135     O3142   2.367       .  S
Zr3135     O3165   2.385       .  S
Zr3135     O3167   2.357       .  S
O3136      H3179   0.990       .  S
O3137      H3178   0.990       .  S
O3137      H3182   0.990       .  S
Zr3138     O3139   2.437   1_655  S
Zr3138     O3140   2.433       .  S
Zr3138     O3142   2.349       .  S
Zr3138     O3141   2.370       .  S
Zr3138     O3166   2.370       .  S
Zr3138     O3168   2.346       .  S
O3139      H3180   0.990       .  S
O3140      H3173   0.990       .  S
O3141     Zr3161   2.382       .  S
O3142     Zr3162   2.383       .  S
O3142      H3169   0.964       .  S
O3143     Zr3155   2.490       .  S
O3143      C3145   1.295       .  A
O3144     Zr3162   2.459       .  S
O3144      C3145   1.294       .  A
C3145      C3554   1.509   1_545  S
O3146     Zr3158   2.403       .  S
O3146      C3148   1.271       .  A
O3147     Zr3161   2.461       .  S
O3147      C3148   1.288       .  A
C3148      C3567   1.489       .  S
O3149     Zr3158   2.383       .  S
O3149      C3151   1.278   1_545  A
O3150     Zr3162   2.390       .  S
O3150      C3151   1.281   1_545  A
C3151      C4841   1.440       .  S
O3152     Zr3155   2.440       .  S
O3152      C3154   1.289       .  A
O3153     Zr3161   2.420       .  S
O3153      C3154   1.287       .  A
C3154      C3587   1.462       .  S
Zr3155     O3156   2.437       .  S
Zr3155     O3157   2.434       .  S
Zr3155     O3163   2.358       .  S
Zr3155     O3164   2.379       .  S
Zr3155     O3167   2.378       .  S
Zr3155     O3165   2.377       .  S
O3156      H3176   0.990       .  S
O3156      H3181   0.990       .  S
O3157      H3177   0.990       .  S
Zr3158     O4383   2.428   1_545  S
Zr3158     O3160   2.435       .  S
Zr3158     O3164   2.338       .  S
Zr3158     O3163   2.354       .  S
Zr3158     O3168   2.359       .  S
Zr3158     O3166   2.362       .  S
O3159     Zr4382   2.428       .  S
O3159      H4399   0.990       .  S
O3160      H3174   0.990       .  S
O3160      H3184   0.990       .  S
Zr3161     O3164   2.395       .  S
Zr3161     O3166   2.385       .  S
Zr3161     O3167   2.413       .  S
Zr3162     O3163   2.395       .  S
Zr3162     O3165   2.384       .  S
Zr3162     O3168   2.388       .  S
O3163      H3171   0.964       .  S
O3166      H3170   0.966       .  S
O3167      H3172   0.966       .  S
H3175      O4383   0.990       .  S
O3185     Zr3197   2.416       .  S
O3185      C3187   1.284       .  A
O3186     Zr3223   2.423       .  S
O3186      C3187   1.285       .  A
O3188     Zr3200   2.416       .  S
O3188      C3190   1.283       .  A
O3189     Zr3224   2.492       .  S
O3189      C3190   1.300       .  A
C3190      C3504   1.489       .  S
O3191     Zr3200   2.439       .  S
O3191      C3193   1.285       .  A
O3192     Zr3223   2.414       .  S
O3192      C3193   1.287       .  A
C3193      C3607   1.493       .  S
O3194     Zr3197   2.409       .  S
O3194      C3196   1.282       .  A
O3195     Zr3224   2.526       .  S
O3195      C3196   1.307       .  A
C3196      C3597   1.509       .  S
Zr3197     O3199   2.435       .  S
Zr3197     O3203   2.360       .  S
Zr3197     O3204   2.370       .  S
Zr3197     O3227   2.369       .  S
Zr3197     O3229   2.361       .  S
O3198      H3241   0.990       .  S
O3199      H3240   0.990       .  S
O3199      H3244   0.990       .  S
Zr3200     O3201   2.436       .  S
Zr3200     O3202   2.435       .  S
Zr3200     O3204   2.367       .  S
Zr3200     O3203   2.358       .  S
Zr3200     O3228   2.367       .  S
Zr3200     O3230   2.373       .  S
O3201      H3242   0.990       .  S
O3201      H3245   0.990       .  S
O3202      H3235   0.990       .  S
O3203     Zr3223   2.375       .  S
O3204     Zr3224   2.403       .  S
O3204      H3231   0.965       .  S
O3205     Zr3217   2.390       .  S
O3205      C3207   1.278       .  A
O3206     Zr3224   2.525       .  S
O3206      C3207   1.307       .  A
C3207      C3477   1.492       .  S
O3208     Zr3220   2.438       .  S
O3208      C3210   1.286       .  A
O3209     Zr3223   2.436       .  S
O3209      C3210   1.289       .  A
C3210      C3484   1.471       .  S
O3211     Zr3220   2.428       .  S
O3211      C3213   1.286       .  A
O3212     Zr3224   2.489       .  S
O3212      C3213   1.299       .  A
C3213      C3514   1.503       .  S
O3214     Zr3217   2.471       .  S
O3214      C3216   1.294       .  A
O3215     Zr3223   2.418       .  S
O3215      C3216   1.284       .  A
C3216      C4721   1.486       .  S
Zr3217     O3218   2.436       .  S
Zr3217     O3219   2.434       .  S
Zr3217     O3225   2.383       .  S
Zr3217     O3226   2.348       .  S
Zr3217     O3229   2.342       .  S
Zr3217     O3227   2.395       .  S
O3218      H3238   0.990       .  S
O3218      H4467   0.990       .  S
O3219      H3239   0.990       .  S
Zr3220     O3221   2.432       .  S
Zr3220     O3222   2.434       .  S
Zr3220     O3226   2.358       .  S
Zr3220     O3225   2.373       .  S
Zr3220     O3230   2.369       .  S
Zr3220     O3228   2.373       .  S
O3221      H3237   0.990       .  S
O3222      H3236   0.990       .  S
O3222      H3246   0.990       .  S
Zr3223     O3226   2.367       .  S
Zr3223     O3228   2.385       .  S
Zr3223     O3229   2.381       .  S
Zr3224     O3225   2.414       .  S
Zr3224     O3227   2.405       .  S
Zr3224     O3230   2.407       .  S
O3225      H3233   0.966       .  S
O3228      H3232   0.966       .  S
O3229      H3234   0.965       .  S
H3243      O4442   0.990       .  S
O3247     Zr3259   2.407       .  S
O3247      C3249   1.280       .  A
O3248     Zr3285   2.482       .  S
O3248      C3249   1.297       .  A
C3249      C3457   1.479       .  S
O3250     Zr3262   2.404       .  S
O3250      C3252   1.279       .  A
O3251     Zr3286   2.460       .  S
O3251      C3252   1.294       .  A
C3252      C3467   1.463       .  S
O3253     Zr3262   2.410       .  S
O3253      C3255   1.282       .  A
O3254     Zr3285   2.427       .  S
O3254      C3255   1.287       .  A
C3255      C3644   1.453       .  S
O3256     Zr3259   2.442       .  S
O3256      C3258   1.290       .  A
O3257     Zr3286   2.410       .  S
O3257      C3258   1.282       .  A
C3258      C3574   1.475       .  S
Zr3259     O3260   2.435       .  S
Zr3259     O3261   2.437       .  S
Zr3259     O3265   2.373       .  S
Zr3259     O3266   2.347       .  S
Zr3259     O3289   2.343       .  S
Zr3259     O3291   2.376       .  S
O3260      H3303   0.990       .  S
O3261      H3302   0.990       .  S
O3261      H3306   0.990       .  S
Zr3262     O3263   2.437       .  S
Zr3262     O3264   2.435       .  S
Zr3262     O3266   2.369       .  S
Zr3262     O3265   2.374       .  S
Zr3262     O3290   2.359       .  S
Zr3262     O3292   2.388       .  S
O3263      H3304   0.990       .  S
O3263      H3307   0.990       .  S
O3264      H3297   0.990       .  S
O3265     Zr3285   2.385       .  S
O3266     Zr3286   2.386       .  S
O3266      H3293   0.964       .  S
O3267     Zr3279   2.377       .  S
O3267      C3269   1.274       .  A
O3268     Zr3286   2.398       .  S
O3268      C3269   1.280       .  A
C3269      C4861   1.424   1_545  S
O3270     Zr3282   2.443       .  S
O3270      C3272   1.290       .  A
O3271     Zr3285   2.419       .  S
O3271      C3272   1.287       .  A
C3272      C3584   1.464       .  S
O3273     Zr3282   2.481       .  S
O3273      C3275   1.294       .  A
O3274     Zr3286   2.456       .  S
O3274      C3275   1.294       .  A
C3275      C3474   1.511       .  S
O3276     Zr3279   2.403       .  S
O3276      C3278   1.271       .  A
O3277     Zr3285   2.460       .  S
O3277      C3278   1.288       .  A
C3278      C3487   1.487       .  S
Zr3279     O4504   2.437   1_545  S
Zr3279     O3281   2.436       .  S
Zr3279     O3287   2.364       .  S
Zr3279     O3288   2.343       .  S
Zr3279     O3291   2.358       .  S
Zr3279     O3289   2.354       .  S
O3280     Zr4503   2.437       .  S
O3280      H3300   0.990       .  S
O3280      H3305   0.990       .  S
O3281      H3301   0.990       .  S
Zr3282     O3283   2.433       .  S
Zr3282     O3284   2.434       .  S
Zr3282     O3288   2.374       .  S
Zr3282     O3287   2.365       .  S
Zr3282     O3292   2.377       .  S
Zr3282     O3290   2.381       .  S
O3283      H3299   0.990       .  S
O3284      H3298   0.990       .  S
O3284      H3308   0.990       .  S
Zr3285     O3288   2.393       .  S
Zr3285     O3290   2.408       .  S
Zr3285     O3291   2.389       .  S
Zr3286     O3287   2.393       .  S
Zr3286     O3289   2.384       .  S
Zr3286     O3292   2.382       .  S
O3287      H3295   0.965       .  S
O3290      H3294   0.966       .  S
O3291      H3296   0.965       .  S
O3309     Zr3321   2.469       .  S
O3309      C3311   1.293       .  A
O3310     Zr3347   2.454       .  S
O3310      C3311   1.294       .  A
C3311      C3547   1.490       .  S
O3312     Zr3324   2.377       .  S
O3312      C3314   1.275       .  A
O3313     Zr3348   2.457       .  S
O3313      C3314   1.291       .  A
C3314      C3534   1.459       .  S
O3315     Zr3324   2.383       .  S
O3315      C3317   1.279       .  A
O3316     Zr3347   2.462       .  S
O3316      C3317   1.291       .  A
O3318     Zr3321   2.488       .  S
O3318      C3320   1.298       .  A
O3319     Zr3348   2.432       .  S
O3319      C3320   1.288       .  A
C3320      C3507   1.496       .  S
Zr3321     O3322   2.434       .  S
Zr3321     O3323   2.434       .  S
Zr3321     O3327   2.373       .  S
Zr3321     O3328   2.377       .  S
Zr3321     O3351   2.371       .  S
Zr3321     O3353   2.396       .  S
O3322      H3365   0.990       .  S
O3323      H3364   0.990       .  S
O3323      H3368   0.990       .  S
Zr3324     O3326   2.435       .  S
Zr3324     O3328   2.362       .  S
Zr3324     O3327   2.345       .  S
Zr3324     O3352   2.356       .  S
Zr3324     O3354   2.360       .  S
O3325      H3366   0.990       .  S
O3325      H3369   0.990       .  S
O3326      H3359   0.990       .  S
O3327     Zr3347   2.387       .  S
O3328     Zr3348   2.392       .  S
O3328      H3355   0.966       .  S
O3329     Zr3341   2.481       .  S
O3329      C3331   1.295       .  A
O3330     Zr3348   2.415       .  S
O3330      C3331   1.284       .  A
C3331      C3444   1.483       .  S
O3332     Zr3344   2.393       .  S
O3332      C3334   1.279       .  A
O3333     Zr3347   2.477       .  S
O3333      C3334   1.296       .  A
C3334      C3494   1.484       .  S
O3335     Zr3344   2.377       .  S
O3335      C3337   1.276       .  A
O3336     Zr3348   2.458       .  S
O3336      C3337   1.291       .  A
C3337      C3464   1.464       .  S
O3338     Zr3341   2.468       .  S
O3338      C3340   1.293       .  A
O3339     Zr3347   2.440       .  S
O3339      C3340   1.292       .  A
C3340      C3454   1.487       .  S
Zr3341     O3342   2.437       .  S
Zr3341     O3343   2.434       .  S
Zr3341     O3349   2.379       .  S
Zr3341     O3350   2.368       .  S
Zr3341     O3353   2.392       .  S
Zr3341     O3351   2.372       .  S
O3342      H3362   0.990       .  S
O3342      H3367   0.990       .  S
O3343      H3363   0.990       .  S
Zr3344     O3345   2.432       .  S
Zr3344     O3346   2.436       .  S
Zr3344     O3350   2.341       .  S
Zr3344     O3349   2.362       .  S
Zr3344     O3354   2.361       .  S
Zr3344     O3352   2.357       .  S
O3345      H3361   0.990       .  S
O3346      H3360   0.990       .  S
O3346      H3370   0.990       .  S
Zr3347     O3350   2.380       .  S
Zr3347     O3352   2.379       .  S
Zr3347     O3353   2.423       .  S
Zr3348     O3349   2.394       .  S
Zr3348     O3351   2.402       .  S
Zr3348     O3354   2.375       .  S
O3349      H3357   0.966       .  S
O3352      H3356   0.966       .  S
O3353      H3358   0.966       .  S
O3371     Zr3383   2.450       .  S
O3371      C3373   1.288       .  A
O3372     Zr3409   2.438       .  S
O3372      C3373   1.289       .  A
C3373      C3564   1.477       .  S
O3374     Zr3386   2.412       .  S
O3374      C3376   1.283       .  A
O3375     Zr3410   2.488       .  S
O3375      C3376   1.299       .  A
C3376      C3447   1.481       .  S
O3377     Zr3386   2.451       .  S
O3377      C3379   1.290       .  A
O3378     Zr3409   2.422       .  S
O3378      C3379   1.286       .  A
C3379      C3664   1.487       .  S
O3380     Zr3383   2.427       .  S
O3380      C3382   1.288       .  A
O3381     Zr3410   2.476       .  S
O3381      C3382   1.295       .  A
C3382      C3517   1.502       .  S
Zr3383     O3384   2.434       .  S
Zr3383     O3385   2.435       .  S
Zr3383     O3389   2.376       .  S
Zr3383     O3390   2.359       .  S
Zr3383     O3413   2.375       .  S
Zr3383     O3415   2.359       .  S
O3384      H3427   0.990       .  S
O3385      H3426   0.990       .  S
O3385      H3430   0.990       .  S
Zr3386     O3387   2.434       .  S
Zr3386     O3388   2.435       .  S
Zr3386     O3390   2.379       .  S
Zr3386     O3389   2.372       .  S
Zr3386     O3414   2.355       .  S
Zr3386     O3416   2.378       .  S
O3387      H3428   0.989       .  S
O3387      H3431   0.990       .  S
O3388      H3421   0.990       .  S
O3389     Zr3409   2.379       .  S
O3390     Zr3410   2.416       .  S
O3390      H3417   0.964       .  S
O3391     Zr3403   2.382       .  S
O3391      C3393   1.276       .  A
O3392     Zr3410   2.535       .  S
O3392      C3393   1.309       .  A
C3393      C3557   1.495       .  S
O3394     Zr3406   2.420       .  S
O3394      C3396   1.285       .  A
O3395     Zr3409   2.414       .  S
O3395      C3396   1.283       .  A
C3396      C3524   1.455       .  S
O3397     Zr3406   2.410       .  S
O3397      C3399   1.282       .  A
O3398     Zr3410   2.513       .  S
O3398      C3399   1.305       .  A
C3399      C3657   1.508       .  S
O3400     Zr3403   2.448       .  S
O3400      C3402   1.290       .  A
O3401     Zr3409   2.407       .  S
O3401      C3402   1.283       .  A
C3402      C4661   1.477       .  S
Zr3403     O3404   2.436       .  S
Zr3403     O3405   2.432       .  S
Zr3403     O3411   2.385       .  S
Zr3403     O3412   2.342       .  S
Zr3403     O3415   2.350       .  S
Zr3403     O3413   2.375       .  S
O3404      H3424   0.990       .  S
O3404      H3429   0.990       .  S
O3405      H3425   0.990       .  S
Zr3406     O3407   2.434       .  S
Zr3406     O3408   2.432       .  S
Zr3406     O3412   2.357       .  S
Zr3406     O3411   2.369       .  S
Zr3406     O3416   2.367       .  S
Zr3406     O3414   2.353       .  S
O3407      H3423   0.990       .  S
O3408      H3422   0.989       .  S
O3408      H3432   0.990       .  S
Zr3409     O3412   2.381       .  S
Zr3409     O3414   2.383       .  S
Zr3409     O3415   2.379       .  S
Zr3410     O3411   2.405       .  S
Zr3410     O3413   2.403       .  S
Zr3410     O3416   2.404       .  S
O3411      H3419   0.966       .  S
O3414      H3418   0.965       .  S
O3415      H3420   0.965       .  S
C3433      C3434   1.407       .  A
C3433      C3438   1.384       .  A
C3433      H3440   1.084       .  S
C3434      C3435   1.409       .  A
C3435      C3436   1.407       .  A
C3436      C3437   1.411       .  A
C3436      H4665   1.083       .  S
C3437      C4626   1.477   1_545  S
C3437      C3438   1.407       .  A
C3438     Br3439   1.923       .  S
H3441      C4660   1.083       .  S
C3443      C3444   1.398       .  A
C3443      C3448   1.396       .  A
C3443      H3450   1.084       .  S
C3444      C3445   1.415       .  A
C3445      C3446   1.411       .  A
C3445     Br3452   1.917       .  S
C3446      C3447   1.404       .  A
C3446      H3451   1.083       .  S
C3447      C3448   1.413       .  A
C3448     Br3449   1.920       .  S
C3453      C3454   1.404       .  A
C3453      C3458   1.401       .  A
C3453      H3460   1.083       .  S
C3454      C3455   1.410       .  A
C3455      C3456   1.409       .  A
C3455     Br3462   1.917       .  S
C3456      C3457   1.408       .  A
C3456      H3461   1.084       .  S
C3457      C3458   1.409       .  A
C3458     Br3459   1.920       .  S
C3463      C3464   1.400       .  A
C3463      H3470   1.084       .  S
C3464      C3465   1.412       .  A
C3465      C3466   1.393       .  A
C3465     Br3472   1.921       .  S
C3466      H3471   1.084       .  S
C3467      C3468   1.411       .  A
C3468     Br3469   1.917       .  S
C3473      C4698   1.409       .  A
C3473      H3480   1.083       .  S
C3474      C4697   1.409   1_545  A
C3475      C4700   1.416       .  A
C3475     Br3482   1.919   1_565  S
C3476      C4699   1.416       .  A
C3476      C3477   1.410       .  A
C3476      H3481   1.083       .  S
C3477      C3478   1.411       .  A
C3478     Br3479   1.919       .  S
C3483      C3484   1.395       .  A
C3483      C3488   1.399       .  A
C3483      H3490   1.084       .  S
C3484      C4709   1.406       .  A
C3485      C4708   1.406   1_545  A
C3485      C3486   1.400       .  A
C3485     Br3492   1.909       .  S
C3486      C3487   1.404       .  A
C3486      H3491   1.083       .  S
C3487      C4712   1.422   1_545  A
C3488      C4711   1.422       .  A
C3488     Br3489   1.921       .  S
C3493      C3494   1.400       .  A
C3493      C3498   1.406       .  A
C3493      H3500   1.079       .  S
C3494      C3495   1.414       .  A
C3495      C3496   1.396       .  A
C3495     Br3502   1.920       .  S
C3496      C3497   1.400       .  A
C3496      H3501   1.083       .  S
C3497      C4440   1.486   1_545  S
C3497      C3498   1.416       .  A
C3498     Br4723   1.913   1_545  S
Br3499     C4722   1.913       .  S
C3503      C3504   1.403       .  A
C3503      C3508   1.409       .  A
C3503      H3510   1.084       .  S
C3504      C3505   1.414       .  A
C3505      C3506   1.405       .  A
C3505     Br3512   1.918       .  S
C3506      C3507   1.403       .  A
C3506      H3511   1.084       .  S
C3507      C3508   1.416       .  A
C3508     Br3509   1.910       .  S
C3513      C3514   1.414       .  A
C3513      C3518   1.421       .  A
C3513      H3520   1.083       .  S
C3514      C3515   1.417       .  A
C3515      C3516   1.390       .  A
C3515     Br3522   1.919       .  S
C3516      C3517   1.402       .  A
C3516      H3521   1.084       .  S
C3517      C3518   1.417       .  A
C3518     Br3519   1.915       .  S
C3523      C3524   1.403       .  A
C3523      C3528   1.400       .  A
C3523      H3530   1.084       .  S
C3524      C3525   1.404       .  A
C3525      C3526   1.386       .  A
C3525     Br3532   1.923       .  S
C3526      C3527   1.400       .  A
C3526      H3531   1.085       .  S
C3527      C3528   1.406       .  A
C3528     Br3529   1.915       .  S
C3533      C3534   1.400       .  A
C3533      H3540   1.084       .  S
C3535      C3536   1.396   1_455  A
C3535     Br3542   1.920   1_455  S
C3536      H3541   1.084       .  S
C3538     Br3539   1.912       .  S
C3543      C3544   1.404       .  A
C3543      C3548   1.410       .  A
C3543      H3550   1.083       .  S
C3544      C3545   1.417       .  A
C3546      C3547   1.400       .  A
C3546      H3551   1.083       .  S
C3548     Br3549   1.913       .  S
C3553      C4778   1.410       .  A
C3553      H3560   1.084       .  S
C3554      C4777   1.410       .  A
C3555      C4780   1.415       .  A
C3555     Br3562   1.918   1_565  S
C3556      C4779   1.415       .  A
C3556      C3557   1.412       .  A
C3556      H3561   1.084       .  S
C3557      C3558   1.412       .  A
C3558     Br3559   1.918       .  S
C3563      C3564   1.397       .  A
C3563      C4792   1.401       .  A
C3563      H3570   1.084       .  S
C3564      C4789   1.408       .  A
C3565      C4788   1.408   1_545  A
C3565      C3566   1.401       .  A
C3565     Br3572   1.909       .  S
C3566      C3567   1.404       .  A
C3566      H3571   1.083       .  S
C3567      C3568   1.422       .  A
C3568      C4787   1.401   1_545  A
C3568     Br3569   1.922   1_545  S
C3573      C3574   1.402       .  A
C3573      C3578   1.388       .  A
C3573      H3580   1.084       .  S
C3574      C3575   1.414       .  A
C3575      C3576   1.403       .  A
C3575     Br3582   1.919       .  S
C3576      C3577   1.404       .  A
C3576      H3581   1.083       .  S
C3577      C3578   1.408       .  A
C3578     Br3579   1.920       .  S
C3583      C3584   1.402       .  A
C3583      C3588   1.399       .  A
C3583      H3590   1.084       .  S
C3584      C3585   1.406       .  A
C3585      C3586   1.393       .  A
C3585     Br3592   1.916       .  S
C3586      C3587   1.400       .  A
C3586      H3591   1.084       .  S
C3587      C3588   1.408       .  A
C3588     Br3589   1.917       .  S
C3593      C3598   1.409       .  A
C3593      H3600   1.083       .  S
C3595      C3596   1.409       .  A
C3595     Br3602   1.920       .  S
C3596      H3601   1.083       .  S
C3598     Br3599   1.916       .  S
C3603      C3604   1.405       .  A
C3603      H3610   1.083       .  S
C3604      C3605   1.414   1_655  A
C3605     Br3612   1.920       .  S
C3606      C3607   1.405       .  A
C3606      H3611   1.083       .  S
C3607      C3608   1.420       .  A
C3608     Br3609   1.922       .  S
C3613      C3614   1.390       .  A
C3613      C3618   1.374       .  A
C3613      H3620   1.086       .  S
C3614      C3615   1.405       .  A
C3615      C3616   1.387       .  A
C3615     Br3622   1.920       .  S
C3616      C3617   1.400       .  A
C3616      H4845   1.084       .  S
C3617      C4375   1.440       .  S
C3617      C3618   1.407       .  A
C3618     Br3619   1.918       .  S
H3621      C4840   1.084       .  S
C3623      C3624   1.408       .  A
C3623      C3628   1.389       .  A
C3623      H3630   1.084       .  S
C3624      C3625   1.405       .  A
C3625      C3626   1.392       .  A
C3625     Br3632   1.921       .  S
C3626      C3627   1.410       .  A
C3626      H3631   1.084       .  S
C3627      C3628   1.407       .  A
C3628     Br3629   1.924       .  S
C3633      C3634   1.404       .  A
C3633      C3638   1.376       .  A
C3633      H3640   1.084       .  S
C3634      C3635   1.408       .  A
C3635      C3636   1.391       .  A
C3636      C3637   1.400       .  A
C3636      H4865   1.084       .  S
C3637      C4493   1.424       .  S
C3637      C3638   1.397       .  A
C3638     Br3639   1.920       .  S
H3641      C4860   1.084       .  S
C3643      C3644   1.400       .  A
C3643      C3648   1.397       .  A
C3643      H3650   1.084       .  S
C3644      C3645   1.402       .  A
C3645      C3646   1.392       .  A
C3645     Br3652   1.920       .  S
C3646      C3647   1.405       .  A
C3646      H3651   1.084       .  S
C3647      C3648   1.408       .  A
C3648     Br3649   1.913       .  S
C3653      C3658   1.409       .  A
C3653      H3660   1.083       .  S
C3654      C3655   1.424       .  A
C3655     Br3662   1.918       .  S
C3656      C3657   1.399       .  A
C3656      H3661   1.083       .  S
C3657      C3658   1.426       .  A
C3658     Br3659   1.915       .  S
C3663      C3664   1.408       .  A
C3663      C3668   1.400       .  A
C3663      H3670   1.083       .  S
C3664      C3665   1.415       .  A
C3665      C3666   1.400       .  A
C3665     Br3672   1.922       .  S
C3666      C3667   1.404       .  A
C3666      H3671   1.084       .  S
C3667      C3668   1.408       .  A
C3668     Br3669   1.919       .  S
O3673     Zr3685   2.450       .  S
O3673      C3675   1.289       .  A
O3674     Zr3711   2.419       .  S
O3674      C3675   1.286       .  A
C3675      C4279   1.479       .  S
O3676     Zr3688   2.373       .  S
O3676      C3678   1.275       .  A
O3677     Zr3712   2.533       .  S
O3677      C3678   1.307       .  A
C3678      C4266   1.498       .  S
O3679     Zr3688   2.375       .  S
O3679      C3681   1.276       .  A
O3680     Zr3711   2.397       .  S
O3680      C3681   1.280       .  A
C3681      C4226   1.418       .  S
O3682     Zr3685   2.410       .  S
O3682      C3684   1.284       .  A
O3683     Zr3712   2.440       .  S
O3683      C3684   1.291       .  A
C3684      C4259   1.467       .  S
Zr3685     O3686   2.435       .  S
Zr3685     O3687   2.436       .  S
Zr3685     O3691   2.358       .  S
Zr3685     O3692   2.376       .  S
Zr3685     O3715   2.364       .  S
Zr3685     O3717   2.365       .  S
O3686      H3729   0.990       .  S
O3687      H3728   0.990       .  S
O3687      H3732   0.990       .  S
Zr3688     O3689   2.432       .  S
Zr3688     O3690   2.434       .  S
Zr3688     O3692   2.356       .  S
Zr3688     O3691   2.360       .  S
Zr3688     O3716   2.345       .  S
Zr3688     O3718   2.373       .  S
O3689      H3730   0.989       .  S
O3689      H3733   0.990       .  S
O3690      H3723   0.990       .  S
O3691     Zr3711   2.370       .  S
O3692     Zr3712   2.398       .  S
O3692      H3719   0.965       .  S
O3693     Zr3705   2.404       .  S
O3693      C3695   1.283       .  A
O3694     Zr3712   2.425       .  S
O3694      C3695   1.288       .  A
C3695      C4239   1.470       .  S
O3696     Zr3708   2.378       .  S
O3696      C3698   1.278       .  A
O3697     Zr3711   2.399       .  S
O3697      C3698   1.280       .  A
O3699     Zr3708   2.361       .  S
O3699      C3701   1.272       .  A
O3700     Zr3712   2.537       .  S
O3700      C3701   1.308       .  A
C3701      C4206   1.498       .  S
O3702     Zr3705   2.455       .  S
O3702      C3704   1.291       .  A
O3703     Zr3711   2.405       .  S
O3703      C3704   1.282       .  A
C3704      C4216   1.485       .  S
Zr3705     O3706   2.437       .  S
Zr3705     O3707   2.434       .  S
Zr3705     O3713   2.378       .  S
Zr3705     O3714   2.347       .  S
Zr3705     O3717   2.362       .  S
Zr3705     O3715   2.369       .  S
O3706      H3726   0.990       .  S
O3706      H3731   0.990       .  S
O3707      H3727   0.990       .  S
Zr3708     O3709   2.432   1_655  S
Zr3708     O3710   2.435       .  S
Zr3708     O3714   2.355       .  S
Zr3708     O3713   2.350       .  S
Zr3708     O3718   2.371       .  S
Zr3708     O3716   2.327       .  S
O3710      H3724   0.990       .  S
O3710      H3734   0.990       .  S
Zr3711     O3714   2.372       .  S
Zr3711     O3716   2.378       .  S
Zr3711     O3717   2.376       .  S
Zr3712     O3713   2.402       .  S
Zr3712     O3715   2.415       .  S
Zr3712     O3718   2.377       .  S
O3713      H3721   0.965       .  S
O3716      H3720   0.965       .  S
O3717      H3722   0.966       .  S
O3735     Zr3747   2.403       .  S
O3735      C3737   1.282       .  A
O3736     Zr3773   2.421       .  S
O3736      C3737   1.286       .  A
C3737      C4236   1.467       .  S
O3738     Zr3750   2.428       .  S
O3738      C3740   1.286       .  A
O3739     Zr3774   2.425       .  S
O3739      C3740   1.286       .  A
O3741     Zr3750   2.401       .  S
O3741      C3743   1.280       .  A
O3742     Zr3773   2.494       .  S
O3742      C3743   1.299       .  A
C3743      C4156   1.490       .  S
O3744     Zr3747   2.397       .  S
O3744      C3746   1.279       .  A
O3745     Zr3774   2.472       .  S
O3745      C3746   1.296       .  A
C3746      C4149   1.469       .  S
Zr3747     O3748   2.434       .  S
Zr3747     O3749   2.435       .  S
Zr3747     O3753   2.373       .  S
Zr3747     O3754   2.367       .  S
Zr3747     O3777   2.386       .  S
Zr3747     O3779   2.357       .  S
O3748      H3791   0.990       .  S
O3749      H3790   0.990       .  S
O3749      H3794   0.990       .  S
Zr3750     O3751   2.437   1_655  S
Zr3750     O3752   2.433       .  S
Zr3750     O3754   2.349       .  S
Zr3750     O3753   2.370       .  S
Zr3750     O3778   2.370       .  S
Zr3750     O3780   2.347       .  S
O3751      H3792   0.990       .  S
O3752      H3785   0.990       .  S
O3753     Zr3773   2.382       .  S
O3754     Zr3774   2.383       .  S
O3754      H3781   0.964       .  S
O3755     Zr3767   2.490       .  S
O3755      C3757   1.295       .  A
O3756     Zr3774   2.460       .  S
O3756      C3757   1.294       .  A
C3757      C4166   1.510       .  S
O3758     Zr3770   2.403       .  S
O3758      C3760   1.271       .  A
O3759     Zr3773   2.461       .  S
O3759      C3760   1.288       .  A
C3760      C4179   1.489       .  S
O3761     Zr3770   2.383       .  S
O3761      C3763   1.278       .  A
O3762     Zr3774   2.390       .  S
O3762      C3763   1.281       .  A
O3764     Zr3767   2.440       .  S
O3764      C3766   1.289       .  A
O3765     Zr3773   2.420       .  S
O3765      C3766   1.287       .  A
C3766      C4199   1.462       .  S
Zr3767     O3768   2.437       .  S
Zr3767     O3769   2.434       .  S
Zr3767     O3775   2.358       .  S
Zr3767     O3776   2.380       .  S
Zr3767     O3779   2.378       .  S
Zr3767     O3777   2.377       .  S
O3768      H3788   0.990       .  S
O3768      H3793   0.990       .  S
O3769      H3789   0.990       .  S
Zr3770     O3772   2.435       .  S
Zr3770     O3776   2.338       .  S
Zr3770     O3775   2.354       .  S
Zr3770     O3780   2.359       .  S
Zr3770     O3778   2.362       .  S
O3772      H3786   0.990       .  S
O3772      H3796   0.990       .  S
Zr3773     O3776   2.395       .  S
Zr3773     O3778   2.385       .  S
Zr3773     O3779   2.413       .  S
Zr3774     O3775   2.395       .  S
Zr3774     O3777   2.384       .  S
Zr3774     O3780   2.388       .  S
O3775      H3783   0.964       .  S
O3778      H3782   0.966       .  S
O3779      H3784   0.966       .  S
O3797     Zr3809   2.416       .  S
O3797      C3799   1.284       .  A
O3798     Zr3835   2.423       .  S
O3798      C3799   1.285       .  A
O3800     Zr3812   2.416       .  S
O3800      C3802   1.283       .  A
O3801     Zr3836   2.492       .  S
O3801      C3802   1.300       .  A
C3802      C4116   1.489       .  S
O3803     Zr3812   2.439       .  S
O3803      C3805   1.285       .  A
O3804     Zr3835   2.414       .  S
O3804      C3805   1.287       .  A
C3805      C4219   1.493       .  S
O3806     Zr3809   2.409       .  S
O3806      C3808   1.282       .  A
O3807     Zr3836   2.526       .  S
O3807      C3808   1.307       .  A
C3808      C4209   1.509       .  S
Zr3809     O3811   2.435       .  S
Zr3809     O3815   2.360       .  S
Zr3809     O3816   2.370       .  S
Zr3809     O3839   2.369       .  S
Zr3809     O3841   2.361       .  S
O3810      H3853   0.990       .  S
O3811      H3852   0.990       .  S
O3811      H3856   0.990       .  S
Zr3812     O3813   2.436       .  S
Zr3812     O3814   2.435       .  S
Zr3812     O3816   2.367       .  S
Zr3812     O3815   2.358       .  S
Zr3812     O3840   2.367       .  S
Zr3812     O3842   2.373       .  S
O3813      H3854   0.990       .  S
O3813      H3857   0.990       .  S
O3814      H3847   0.990       .  S
O3815     Zr3835   2.375       .  S
O3816     Zr3836   2.403       .  S
O3816      H3843   0.965       .  S
O3817     Zr3829   2.390       .  S
O3817      C3819   1.278       .  A
O3818     Zr3836   2.525       .  S
O3818      C3819   1.307       .  A
C3819      C4089   1.492       .  S
O3820     Zr3832   2.438       .  S
O3820      C3822   1.286       .  A
O3821     Zr3835   2.436       .  S
O3821      C3822   1.289       .  A
C3822      C4096   1.471       .  S
O3823     Zr3832   2.428       .  S
O3823      C3825   1.286       .  A
O3824     Zr3836   2.489       .  S
O3824      C3825   1.299       .  A
C3825      C4126   1.503       .  S
O3826     Zr3829   2.471       .  S
O3826      C3828   1.294       .  A
O3827     Zr3835   2.418       .  S
O3827      C3828   1.284       .  A
Zr3829     O3830   2.436   1_565  S
Zr3829     O3831   2.434       .  S
Zr3829     O3837   2.383       .  S
Zr3829     O3838   2.348       .  S
Zr3829     O3841   2.342       .  S
Zr3829     O3839   2.395       .  S
O3830      H3850   0.990   1_545  S
O3831      H3851   0.990       .  S
Zr3832     O3833   2.432       .  S
Zr3832     O3834   2.434       .  S
Zr3832     O3838   2.358       .  S
Zr3832     O3837   2.373       .  S
Zr3832     O3842   2.369       .  S
Zr3832     O3840   2.373       .  S
O3833      H3849   0.990       .  S
O3834      H3848   0.990       .  S
O3834      H3858   0.990       .  S
Zr3835     O3838   2.367       .  S
Zr3835     O3840   2.385       .  S
Zr3835     O3841   2.381       .  S
Zr3836     O3837   2.414       .  S
Zr3836     O3839   2.405       .  S
Zr3836     O3842   2.407       .  S
O3837      H3845   0.966       .  S
O3840      H3844   0.966       .  S
O3841      H3846   0.965       .  S
O3859     Zr3871   2.407       .  S
O3859      C3861   1.280       .  A
O3860     Zr3897   2.482       .  S
O3860      C3861   1.297       .  A
C3861      C4069   1.479       .  S
O3862     Zr3874   2.404       .  S
O3862      C3864   1.279       .  A
O3863     Zr3898   2.460       .  S
O3863      C3864   1.294       .  A
C3864      C4079   1.463       .  S
O3865     Zr3874   2.410       .  S
O3865      C3867   1.282       .  A
O3866     Zr3897   2.427       .  S
O3866      C3867   1.287       .  A
C3867      C4256   1.453       .  S
O3868     Zr3871   2.442       .  S
O3868      C3870   1.290       .  A
O3869     Zr3898   2.410       .  S
O3869      C3870   1.282       .  A
C3870      C4186   1.475       .  S
Zr3871     O3872   2.435       .  S
Zr3871     O3873   2.437       .  S
Zr3871     O3877   2.373       .  S
Zr3871     O3878   2.347       .  S
Zr3871     O3901   2.343       .  S
Zr3871     O3903   2.376       .  S
O3872      H3915   0.990       .  S
O3873      H3914   0.990       .  S
O3873      H3918   0.990       .  S
Zr3874     O3875   2.437       .  S
Zr3874     O3876   2.435       .  S
Zr3874     O3878   2.369       .  S
Zr3874     O3877   2.374       .  S
Zr3874     O3902   2.359       .  S
Zr3874     O3904   2.388       .  S
O3875      H3916   0.990       .  S
O3875      H3919   0.990       .  S
O3876      H3909   0.990       .  S
O3877     Zr3897   2.385       .  S
O3878     Zr3898   2.386       .  S
O3878      H3905   0.964       .  S
O3879     Zr3891   2.377       .  S
O3879      C3881   1.274       .  A
O3880     Zr3898   2.398       .  S
O3880      C3881   1.280       .  A
O3882     Zr3894   2.443       .  S
O3882      C3884   1.290       .  A
O3883     Zr3897   2.419       .  S
O3883      C3884   1.287       .  A
C3884      C4196   1.464       .  S
O3885     Zr3894   2.481       .  S
O3885      C3887   1.294       .  A
O3886     Zr3898   2.456       .  S
O3886      C3887   1.294       .  A
C3887      C4086   1.511       .  S
O3888     Zr3891   2.403       .  S
O3888      C3890   1.271       .  A
O3889     Zr3897   2.460       .  S
O3889      C3890   1.288       .  A
C3890      C4099   1.487       .  S
Zr3891     O3893   2.436       .  S
Zr3891     O3899   2.364       .  S
Zr3891     O3900   2.343       .  S
Zr3891     O3903   2.358       .  S
Zr3891     O3901   2.354       .  S
O3892      H3912   0.990       .  S
O3892      H3917   0.990       .  S
O3893      H3913   0.990       .  S
Zr3894     O3895   2.433       .  S
Zr3894     O3896   2.434       .  S
Zr3894     O3900   2.374       .  S
Zr3894     O3899   2.365       .  S
Zr3894     O3904   2.377       .  S
Zr3894     O3902   2.381       .  S
O3895      H3911   0.990       .  S
O3896      H3910   0.990       .  S
O3896      H3920   0.990       .  S
Zr3897     O3900   2.393       .  S
Zr3897     O3902   2.408       .  S
Zr3897     O3903   2.389       .  S
Zr3898     O3899   2.393       .  S
Zr3898     O3901   2.384       .  S
Zr3898     O3904   2.382       .  S
O3899      H3907   0.965       .  S
O3902      H3906   0.966       .  S
O3903      H3908   0.965       .  S
O3921     Zr3933   2.469       .  S
O3921      C3923   1.293       .  A
O3922     Zr3959   2.454       .  S
O3922      C3923   1.294       .  A
C3923      C4159   1.490       .  S
O3924     Zr3936   2.377       .  S
O3924      C3926   1.275       .  A
O3925     Zr3960   2.457       .  S
O3925      C3926   1.291       .  A
C3926      C4146   1.459       .  S
O3927     Zr3936   2.383       .  S
O3927      C3929   1.279       .  A
O3928     Zr3959   2.462       .  S
O3928      C3929   1.291       .  A
O3930     Zr3933   2.488       .  S
O3930      C3932   1.298       .  A
O3931     Zr3960   2.432       .  S
O3931      C3932   1.288       .  A
C3932      C4119   1.496       .  S
Zr3933     O3934   2.434       .  S
Zr3933     O3935   2.434       .  S
Zr3933     O3939   2.373       .  S
Zr3933     O3940   2.377       .  S
Zr3933     O3963   2.371       .  S
Zr3933     O3965   2.396       .  S
O3934      H3977   0.990       .  S
O3935      H3976   0.990       .  S
O3935      H3980   0.990       .  S
Zr3936     O3938   2.435       .  S
Zr3936     O3940   2.362       .  S
Zr3936     O3939   2.345       .  S
Zr3936     O3964   2.356       .  S
Zr3936     O3966   2.360       .  S
O3937      H3978   0.990       .  S
O3937      H3981   0.990       .  S
O3938      H3971   0.990       .  S
O3939     Zr3959   2.387       .  S
O3940     Zr3960   2.392       .  S
O3940      H3967   0.966       .  S
O3941     Zr3953   2.482       .  S
O3941      C3943   1.295       .  A
O3942     Zr3960   2.415       .  S
O3942      C3943   1.284       .  A
C3943      C4056   1.483       .  S
O3944     Zr3956   2.393       .  S
O3944      C3946   1.279       .  A
O3945     Zr3959   2.477       .  S
O3945      C3946   1.296       .  A
C3946      C4106   1.484       .  S
O3947     Zr3956   2.377       .  S
O3947      C3949   1.276       .  A
O3948     Zr3960   2.458       .  S
O3948      C3949   1.291       .  A
C3949      C4076   1.464       .  S
O3950     Zr3953   2.468       .  S
O3950      C3952   1.293       .  A
O3951     Zr3959   2.440       .  S
O3951      C3952   1.292       .  A
C3952      C4066   1.487       .  S
Zr3953     O3954   2.437       .  S
Zr3953     O3955   2.434       .  S
Zr3953     O3961   2.379       .  S
Zr3953     O3962   2.368       .  S
Zr3953     O3965   2.392       .  S
Zr3953     O3963   2.372       .  S
O3954      H3974   0.990       .  S
O3954      H3979   0.990       .  S
O3955      H3975   0.990       .  S
Zr3956     O3957   2.432       .  S
Zr3956     O3958   2.436       .  S
Zr3956     O3962   2.341       .  S
Zr3956     O3961   2.362       .  S
Zr3956     O3966   2.361       .  S
Zr3956     O3964   2.357       .  S
O3957      H3973   0.990       .  S
O3958      H3972   0.990       .  S
O3958      H3982   0.990       .  S
Zr3959     O3962   2.380       .  S
Zr3959     O3964   2.379       .  S
Zr3959     O3965   2.423       .  S
Zr3960     O3961   2.394       .  S
Zr3960     O3963   2.402       .  S
Zr3960     O3966   2.375       .  S
O3961      H3969   0.966       .  S
O3964      H3968   0.966       .  S
O3965      H3970   0.966       .  S
O3983     Zr3995   2.450       .  S
O3983      C3985   1.288       .  A
O3984     Zr4021   2.438       .  S
O3984      C3985   1.289       .  A
C3985      C4176   1.477       .  S
O3986     Zr3998   2.412       .  S
O3986      C3988   1.283       .  A
O3987     Zr4022   2.488       .  S
O3987      C3988   1.299       .  A
C3988      C4059   1.481       .  S
O3989     Zr3998   2.451       .  S
O3989      C3991   1.290       .  A
O3990     Zr4021   2.422       .  S
O3990      C3991   1.286       .  A
C3991      C4276   1.487       .  S
O3992     Zr3995   2.427       .  S
O3992      C3994   1.288       .  A
O3993     Zr4022   2.476       .  S
O3993      C3994   1.295       .  A
C3994      C4129   1.502       .  S
Zr3995     O3996   2.434       .  S
Zr3995     O3997   2.435       .  S
Zr3995     O4001   2.376       .  S
Zr3995     O4002   2.359       .  S
Zr3995     O4025   2.375       .  S
Zr3995     O4027   2.359       .  S
O3996      H4039   0.990       .  S
O3997      H4038   0.990       .  S
O3997      H4042   0.990       .  S
Zr3998     O3999   2.434       .  S
Zr3998     O4000   2.435       .  S
Zr3998     O4002   2.379       .  S
Zr3998     O4001   2.372       .  S
Zr3998     O4026   2.355       .  S
Zr3998     O4028   2.379       .  S
O3999      H4040   0.989       .  S
O3999      H4043   0.990       .  S
O4000      H4033   0.990       .  S
O4001     Zr4021   2.379       .  S
O4002     Zr4022   2.416       .  S
O4002      H4029   0.964       .  S
O4003     Zr4015   2.381       .  S
O4003      C4005   1.276       .  A
O4004     Zr4022   2.536       .  S
O4004      C4005   1.309       .  A
C4005      C4169   1.495       .  S
O4006     Zr4018   2.420       .  S
O4006      C4008   1.285       .  A
O4007     Zr4021   2.414       .  S
O4007      C4008   1.283       .  A
C4008      C4136   1.455       .  S
O4009     Zr4018   2.409       .  S
O4009      C4011   1.282       .  A
O4010     Zr4022   2.513       .  S
O4010      C4011   1.305       .  A
C4011      C4269   1.508       .  S
O4012     Zr4015   2.447       .  S
O4012      C4014   1.290       .  A
O4013     Zr4021   2.407       .  S
O4013      C4014   1.283       .  A
Zr4015     O4016   2.436       .  S
Zr4015     O4017   2.432       .  S
Zr4015     O4023   2.385       .  S
Zr4015     O4024   2.341       .  S
Zr4015     O4027   2.350       .  S
Zr4015     O4025   2.375       .  S
O4016      H4036   0.990       .  S
O4016      H4041   0.990       .  S
O4017      H4037   0.990       .  S
Zr4018     O4019   2.434       .  S
Zr4018     O4020   2.432       .  S
Zr4018     O4024   2.357       .  S
Zr4018     O4023   2.369       .  S
Zr4018     O4028   2.367       .  S
Zr4018     O4026   2.354       .  S
O4019      H4035   0.990       .  S
O4020      H4034   0.989       .  S
O4020      H4044   0.990       .  S
Zr4021     O4024   2.381       .  S
Zr4021     O4026   2.383       .  S
Zr4021     O4027   2.379       .  S
Zr4022     O4023   2.405       .  S
Zr4022     O4025   2.403       .  S
Zr4022     O4028   2.404       .  S
O4023      H4031   0.966       .  S
O4026      H4030   0.965       .  S
O4027      H4032   0.965       .  S
C4045      C4046   1.407       .  A
C4045      C4050   1.384       .  A
C4045      H4052   1.084       .  S
C4046      C4047   1.409       .  A
C4047      C4048   1.407       .  A
C4048      C4049   1.411       .  A
C4049      C4050   1.407       .  A
C4050     Br4051   1.923       .  S
C4055      C4056   1.398       .  A
C4055      C4060   1.396       .  A
C4055      H4062   1.084       .  S
C4056      C4057   1.415       .  A
C4057      C4058   1.411       .  A
C4057     Br4064   1.917       .  S
C4058      C4059   1.404       .  A
C4058      H4063   1.083       .  S
C4059      C4060   1.413       .  A
C4060     Br4061   1.920       .  S
C4065      C4066   1.404       .  A
C4065      C4070   1.401       .  A
C4065      H4072   1.083       .  S
C4066      C4067   1.410       .  A
C4067      C4068   1.409       .  A
C4067     Br4074   1.917       .  S
C4068      C4069   1.408       .  A
C4068      H4073   1.084       .  S
C4069      C4070   1.409       .  A
C4070     Br4071   1.920       .  S
C4075      C4076   1.400       .  A
C4075      C4692   1.400   1_554  A
C4075      H4082   1.084       .  S
C4076      C4077   1.412       .  A
C4077      C4078   1.393       .  A
C4077     Br4084   1.921       .  S
C4078      C4691   1.397   1_554  A
C4078      H4083   1.084       .  S
C4079      C4690   1.397       .  A
C4079      C4080   1.411       .  A
C4080      C4687   1.400       .  A
C4080     Br4081   1.917       .  S
C4085      C4702   1.406       .  A
C4085      H4092   1.083       .  S
C4086      C4699   1.418       .  A
C4087      C4698   1.418       .  A
C4087     Br4094   1.919       .  S
C4088      C4089   1.410       .  A
C4088      H4093   1.083       .  S
C4089      C4090   1.411   1_554  A
C4090      C4697   1.406       .  A
C4090     Br4091   1.919       .  S
C4095      C4096   1.395       .  A
C4095      C4100   1.399       .  A
C4095      H4102   1.084       .  S
C4097      C4098   1.400       .  A
C4097     Br4104   1.909       .  S
C4098      C4099   1.404       .  A
C4098      H4103   1.083       .  S
C4100     Br4101   1.921       .  S
C4105      C4106   1.400       .  A
C4105      C4110   1.406       .  A
C4105      H4112   1.079       .  S
C4106      C4107   1.414       .  A
C4107      C4108   1.396       .  A
C4107     Br4114   1.920       .  S
C4108      C4109   1.400       .  A
C4108      H4113   1.083       .  S
C4109      C4110   1.416       .  A
C4115      C4116   1.403       .  A
C4115      C4120   1.409       .  A
C4115      H4122   1.084       .  S
C4116      C4117   1.414       .  A
C4117      C4118   1.405       .  A
C4117     Br4124   1.918       .  S
C4118      C4119   1.403       .  A
C4118      H4123   1.084       .  S
C4119      C4120   1.416       .  A
C4120     Br4121   1.910       .  S
C4125      C4126   1.413       .  A
C4125      C4130   1.421       .  A
C4125      H4132   1.083       .  S
C4126      C4127   1.417       .  A
C4127      C4128   1.389       .  A
C4127     Br4134   1.919       .  S
C4128      C4129   1.402       .  A
C4128      H4133   1.084       .  S
C4129      C4130   1.417       .  A
C4130     Br4131   1.915       .  S
C4135      C4136   1.403       .  A
C4135      C4140   1.400       .  A
C4135      H4142   1.084       .  S
C4136      C4137   1.404       .  A
C4137      C4138   1.386       .  A
C4137     Br4144   1.923       .  S
C4138      C4139   1.400       .  A
C4138      H4143   1.085       .  S
C4139      C4140   1.406       .  A
C4140     Br4141   1.915       .  S
C4145      C4146   1.400       .  A
C4145      C4762   1.399   1_554  A
C4145      H4152   1.084       .  S
C4147      C4148   1.396   1_455  A
C4147     Br4154   1.920   1_455  S
C4148      C4761   1.402   1_554  A
C4148      H4153   1.084       .  S
C4149      C4760   1.402       .  A
C4150      C4757   1.399       .  A
C4150     Br4151   1.912       .  S
C4155      C4156   1.404       .  A
C4155      C4160   1.410       .  A
C4155      H4162   1.083       .  S
C4156      C4157   1.417       .  A
C4158      C4159   1.400       .  A
C4158      H4163   1.083       .  S
C4160     Br4161   1.913       .  S
C4165      C4782   1.411       .  A
C4165      H4172   1.084       .  S
C4166      C4779   1.415       .  A
C4167      C4778   1.415       .  A
C4167     Br4174   1.918   1_556  S
C4168      C4169   1.412       .  A
C4168      H4173   1.084       .  S
C4169      C4170   1.412   1_554  A
C4170      C4777   1.411       .  A
C4170     Br4171   1.918       .  S
C4175      C4176   1.397       .  A
C4175      H4182   1.084       .  S
C4177      C4178   1.401       .  A
C4177     Br4184   1.909       .  S
C4178      C4179   1.404       .  A
C4178      H4183   1.083       .  S
C4179      C4180   1.422       .  A
C4180     Br4181   1.922       .  S
C4185      C4186   1.402       .  A
C4185      C4190   1.388       .  A
C4185      H4192   1.084       .  S
C4186      C4187   1.414       .  A
C4187      C4188   1.403       .  A
C4187     Br4194   1.919       .  S
C4188      C4189   1.404       .  A
C4188      H4193   1.083       .  S
C4189      C4190   1.408       .  A
C4190     Br4191   1.920       .  S
C4195      C4196   1.402       .  A
C4195      C4200   1.399       .  A
C4195      H4202   1.084       .  S
C4196      C4197   1.406       .  A
C4197      C4198   1.393       .  A
C4197     Br4204   1.915       .  S
C4198      C4199   1.400       .  A
C4198      H4203   1.084       .  S
C4199      C4200   1.408       .  A
C4200     Br4201   1.917       .  S
C4205      C4818   1.396   1_554  A
C4205      C4210   1.409       .  A
C4205      H4212   1.083       .  S
C4206      C4817   1.396       .  A
C4207      C4208   1.409       .  A
C4207     Br4214   1.920       .  S
C4208      C4821   1.400       .  A
C4208      H4213   1.083       .  S
C4209      C4820   1.400   1_554  A
C4210     Br4211   1.916       .  S
C4215      C4216   1.405       .  A
C4215      H4222   1.083       .  S
C4216      C4217   1.414   1_655  A
C4217     Br4224   1.920       .  S
C4218      C4219   1.405       .  A
C4218      H4223   1.083       .  S
C4219      C4220   1.420       .  A
C4220     Br4221   1.922       .  S
C4225      C4226   1.390       .  A
C4225      C4230   1.374       .  A
C4225      H4232   1.086       .  S
C4226      C4227   1.405       .  A
C4227      C4228   1.387       .  A
C4227     Br4234   1.920       .  S
C4228      C4229   1.400       .  A
C4229      C4230   1.407       .  A
C4230     Br4231   1.918       .  S
C4235      C4236   1.408       .  A
C4235      C4240   1.389       .  A
C4235      H4242   1.084       .  S
C4236      C4237   1.405       .  A
C4237      C4238   1.392       .  A
C4237     Br4244   1.921       .  S
C4238      C4239   1.410       .  A
C4238      H4243   1.084       .  S
C4239      C4240   1.407       .  A
C4240     Br4241   1.924       .  S
C4245      C4246   1.404       .  A
C4245      C4250   1.376       .  A
C4245      H4252   1.084       .  S
C4246      C4247   1.408       .  A
C4247      C4248   1.391       .  A
C4248      C4249   1.400       .  A
C4249      C4250   1.397       .  A
C4250     Br4251   1.920       .  S
C4255      C4256   1.400       .  A
C4255      C4260   1.397       .  A
C4255      H4262   1.084       .  S
C4256      C4257   1.402       .  A
C4257      C4258   1.392       .  A
C4257     Br4264   1.920       .  S
C4258      C4259   1.405       .  A
C4258      H4263   1.084       .  S
C4259      C4260   1.408       .  A
C4260     Br4261   1.913       .  S
C4265      C4878   1.397   1_554  A
C4265      C4270   1.409       .  A
C4265      H4272   1.083       .  S
C4266      C4877   1.397       .  A
C4266      C4267   1.424       .  A
C4267      C4880   1.407       .  A
C4267     Br4274   1.918       .  S
C4268      C4879   1.407       .  A
C4268      C4269   1.399   1_556  A
C4268      H4273   1.083       .  S
C4269      C4270   1.427       .  A
C4270     Br4271   1.915       .  S
C4275      C4276   1.408       .  A
C4275      C4280   1.400       .  A
C4275      H4282   1.083       .  S
C4276      C4277   1.415       .  A
C4277      C4278   1.400       .  A
C4277     Br4284   1.922       .  S
C4278      C4279   1.404       .  A
C4278      H4283   1.084       .  S
C4279      C4280   1.409       .  A
C4280     Br4281   1.919       .  S
O4285     Zr4297   2.450       .  S
O4285      C4287   1.289       .  A
O4286     Zr4323   2.419       .  S
O4286      C4287   1.286       .  A
C4287      C4891   1.479       .  S
O4288     Zr4300   2.373       .  S
O4288      C4290   1.275       .  A
O4289     Zr4324   2.533       .  S
O4289      C4290   1.307       .  A
C4290      C4878   1.498       .  S
O4291     Zr4300   2.375       .  S
O4291      C4293   1.276       .  A
O4292     Zr4323   2.397       .  S
O4292      C4293   1.280       .  A
C4293      C4838   1.418       .  S
O4294     Zr4297   2.410       .  S
O4294      C4296   1.284       .  A
O4295     Zr4324   2.440       .  S
O4295      C4296   1.291       .  A
C4296      C4871   1.467       .  S
Zr4297     O4298   2.435       .  S
Zr4297     O4299   2.436       .  S
Zr4297     O4303   2.358       .  S
Zr4297     O4304   2.376       .  S
Zr4297     O4327   2.364       .  S
Zr4297     O4329   2.365       .  S
O4298      H4341   0.990       .  S
O4299      H4340   0.990       .  S
O4299      H4344   0.990       .  S
Zr4300     O4301   2.432       .  S
Zr4300     O4302   2.434       .  S
Zr4300     O4304   2.356       .  S
Zr4300     O4303   2.360       .  S
Zr4300     O4328   2.345       .  S
Zr4300     O4330   2.373       .  S
O4301      H4342   0.989       .  S
O4301      H4345   0.990       .  S
O4302      H4335   0.990       .  S
O4303     Zr4323   2.370       .  S
O4304     Zr4324   2.398       .  S
O4304      H4331   0.965       .  S
O4305     Zr4317   2.404       .  S
O4305      C4307   1.283       .  A
O4306     Zr4324   2.425       .  S
O4306      C4307   1.288       .  A
C4307      C4851   1.470       .  S
O4308     Zr4320   2.378       .  S
O4308      C4310   1.278       .  A
O4309     Zr4323   2.399       .  S
O4309      C4310   1.280       .  A
O4311     Zr4320   2.361       .  S
O4311      C4313   1.272       .  A
O4312     Zr4324   2.537       .  S
O4312      C4313   1.308       .  A
C4313      C4818   1.498       .  S
O4314     Zr4317   2.455       .  S
O4314      C4316   1.291       .  A
O4315     Zr4323   2.405       .  S
O4315      C4316   1.282       .  A
C4316      C4828   1.485       .  S
Zr4317     O4318   2.437       .  S
Zr4317     O4319   2.434       .  S
Zr4317     O4325   2.378       .  S
Zr4317     O4326   2.347       .  S
Zr4317     O4329   2.362       .  S
Zr4317     O4327   2.370       .  S
O4318      H4338   0.990       .  S
O4318      H4343   0.990       .  S
O4319      H4339   0.990       .  S
Zr4320     O4321   2.432   1_655  S
Zr4320     O4322   2.435       .  S
Zr4320     O4326   2.355       .  S
Zr4320     O4325   2.350       .  S
Zr4320     O4330   2.371       .  S
Zr4320     O4328   2.327       .  S
O4322      H4336   0.990       .  S
O4322      H4346   0.990       .  S
Zr4323     O4326   2.372       .  S
Zr4323     O4328   2.378       .  S
Zr4323     O4329   2.376       .  S
Zr4324     O4325   2.402       .  S
Zr4324     O4327   2.415       .  S
Zr4324     O4330   2.377       .  S
O4325      H4333   0.965       .  S
O4328      H4332   0.965       .  S
O4329      H4334   0.966       .  S
O4347     Zr4359   2.403       .  S
O4347      C4349   1.282       .  A
O4348     Zr4385   2.421       .  S
O4348      C4349   1.286       .  A
C4349      C4848   1.467       .  S
O4350     Zr4362   2.429       .  S
O4350      C4352   1.286       .  A
O4351     Zr4386   2.425       .  S
O4351      C4352   1.286       .  A
O4353     Zr4362   2.400       .  S
O4353      C4355   1.280       .  A
O4354     Zr4385   2.494       .  S
O4354      C4355   1.299       .  A
C4355      C4768   1.490       .  S
O4356     Zr4359   2.397       .  S
O4356      C4358   1.279       .  A
O4357     Zr4386   2.471       .  S
O4357      C4358   1.296       .  A
C4358      C4761   1.469       .  S
Zr4359     O4360   2.434       .  S
Zr4359     O4361   2.435       .  S
Zr4359     O4365   2.373       .  S
Zr4359     O4366   2.367       .  S
Zr4359     O4389   2.385       .  S
Zr4359     O4391   2.357       .  S
O4360      H4403   0.990       .  S
O4361      H4402   0.990       .  S
O4361      H4406   0.990       .  S
Zr4362     O4363   2.437   1_655  S
Zr4362     O4364   2.433       .  S
Zr4362     O4366   2.349       .  S
Zr4362     O4365   2.370       .  S
Zr4362     O4390   2.370       .  S
Zr4362     O4392   2.346       .  S
O4363      H4404   0.990       .  S
O4364      H4397   0.990       .  S
O4365     Zr4385   2.382       .  S
O4366     Zr4386   2.383       .  S
O4366      H4393   0.964       .  S
O4367     Zr4379   2.490       .  S
O4367      C4369   1.295       .  A
O4368     Zr4386   2.459       .  S
O4368      C4369   1.294       .  A
C4369      C4778   1.509       .  S
O4370     Zr4382   2.403       .  S
O4370      C4372   1.271       .  A
O4371     Zr4385   2.461       .  S
O4371      C4372   1.288       .  A
C4372      C4791   1.489       .  S
O4373     Zr4382   2.383       .  S
O4373      C4375   1.278       .  A
O4374     Zr4386   2.390       .  S
O4374      C4375   1.281       .  A
O4376     Zr4379   2.440       .  S
O4376      C4378   1.289       .  A
O4377     Zr4385   2.420       .  S
O4377      C4378   1.287       .  A
C4378      C4811   1.462       .  S
Zr4379     O4380   2.437       .  S
Zr4379     O4381   2.434       .  S
Zr4379     O4387   2.358       .  S
Zr4379     O4388   2.379       .  S
Zr4379     O4391   2.378       .  S
Zr4379     O4389   2.377       .  S
O4380      H4400   0.990       .  S
O4380      H4405   0.990       .  S
O4381      H4401   0.990       .  S
Zr4382     O4384   2.435       .  S
Zr4382     O4388   2.338       .  S
Zr4382     O4387   2.354       .  S
Zr4382     O4392   2.359       .  S
Zr4382     O4390   2.362       .  S
O4384      H4398   0.990       .  S
O4384      H4408   0.990       .  S
Zr4385     O4388   2.395       .  S
Zr4385     O4390   2.385       .  S
Zr4385     O4391   2.413       .  S
Zr4386     O4387   2.395       .  S
Zr4386     O4389   2.384       .  S
Zr4386     O4392   2.388       .  S
O4387      H4395   0.964       .  S
O4390      H4394   0.966       .  S
O4391      H4396   0.966       .  S
O4409     Zr4421   2.416       .  S
O4409      C4411   1.284       .  A
O4410     Zr4447   2.423       .  S
O4410      C4411   1.285       .  A
O4412     Zr4424   2.416       .  S
O4412      C4414   1.283       .  A
O4413     Zr4448   2.492       .  S
O4413      C4414   1.300       .  A
C4414      C4728   1.489       .  S
O4415     Zr4424   2.439       .  S
O4415      C4417   1.285       .  A
O4416     Zr4447   2.414       .  S
O4416      C4417   1.287       .  A
C4417      C4831   1.493       .  S
O4418     Zr4421   2.409       .  S
O4418      C4420   1.282       .  A
O4419     Zr4448   2.526       .  S
O4419      C4420   1.307       .  A
C4420      C4821   1.509       .  S
Zr4421     O4423   2.435       .  S
Zr4421     O4427   2.360       .  S
Zr4421     O4428   2.370       .  S
Zr4421     O4451   2.369       .  S
Zr4421     O4453   2.361       .  S
O4422      H4465   0.990       .  S
O4423      H4464   0.990       .  S
O4423      H4468   0.990       .  S
Zr4424     O4425   2.436       .  S
Zr4424     O4426   2.435       .  S
Zr4424     O4428   2.367       .  S
Zr4424     O4427   2.358       .  S
Zr4424     O4452   2.367       .  S
Zr4424     O4454   2.373       .  S
O4425      H4466   0.990       .  S
O4425      H4469   0.990       .  S
O4426      H4459   0.990       .  S
O4427     Zr4447   2.375       .  S
O4428     Zr4448   2.403       .  S
O4428      H4455   0.965       .  S
O4429     Zr4441   2.390       .  S
O4429      C4431   1.278       .  A
O4430     Zr4448   2.525       .  S
O4430      C4431   1.307       .  A
C4431      C4701   1.492       .  S
O4432     Zr4444   2.438       .  S
O4432      C4434   1.286       .  A
O4433     Zr4447   2.436       .  S
O4433      C4434   1.289       .  A
C4434      C4708   1.471       .  S
O4435     Zr4444   2.428       .  S
O4435      C4437   1.286       .  A
O4436     Zr4448   2.489       .  S
O4436      C4437   1.299       .  A
C4437      C4738   1.503       .  S
O4438     Zr4441   2.471       .  S
O4438      C4440   1.294       .  A
O4439     Zr4447   2.418       .  S
O4439      C4440   1.284       .  A
Zr4441     O4442   2.436   1_565  S
Zr4441     O4443   2.434       .  S
Zr4441     O4449   2.383       .  S
Zr4441     O4450   2.348       .  S
Zr4441     O4453   2.342       .  S
Zr4441     O4451   2.395       .  S
O4442      H4462   0.990   1_545  S
O4443      H4463   0.990       .  S
Zr4444     O4445   2.432       .  S
Zr4444     O4446   2.434       .  S
Zr4444     O4450   2.358       .  S
Zr4444     O4449   2.373       .  S
Zr4444     O4454   2.369       .  S
Zr4444     O4452   2.373       .  S
O4445      H4461   0.990       .  S
O4446      H4460   0.990       .  S
O4446      H4470   0.990       .  S
Zr4447     O4450   2.367       .  S
Zr4447     O4452   2.385       .  S
Zr4447     O4453   2.381       .  S
Zr4448     O4449   2.414       .  S
Zr4448     O4451   2.405       .  S
Zr4448     O4454   2.407       .  S
O4449      H4457   0.966       .  S
O4452      H4456   0.966       .  S
O4453      H4458   0.965       .  S
O4471     Zr4483   2.407       .  S
O4471      C4473   1.280       .  A
O4472     Zr4509   2.482       .  S
O4472      C4473   1.297       .  A
C4473      C4681   1.479       .  S
O4474     Zr4486   2.404       .  S
O4474      C4476   1.279       .  A
O4475     Zr4510   2.460       .  S
O4475      C4476   1.294       .  A
C4476      C4691   1.463       .  S
O4477     Zr4486   2.410       .  S
O4477      C4479   1.282       .  A
O4478     Zr4509   2.427       .  S
O4478      C4479   1.287       .  A
C4479      C4868   1.453       .  S
O4480     Zr4483   2.442       .  S
O4480      C4482   1.290       .  A
O4481     Zr4510   2.410       .  S
O4481      C4482   1.282       .  A
C4482      C4798   1.475       .  S
Zr4483     O4484   2.435       .  S
Zr4483     O4485   2.437       .  S
Zr4483     O4489   2.373       .  S
Zr4483     O4490   2.347       .  S
Zr4483     O4513   2.343       .  S
Zr4483     O4515   2.376       .  S
O4484      H4527   0.990       .  S
O4485      H4526   0.990       .  S
O4485      H4530   0.990       .  S
Zr4486     O4487   2.437       .  S
Zr4486     O4488   2.435       .  S
Zr4486     O4490   2.369       .  S
Zr4486     O4489   2.374       .  S
Zr4486     O4514   2.359       .  S
Zr4486     O4516   2.388       .  S
O4487      H4528   0.990       .  S
O4487      H4531   0.990       .  S
O4488      H4521   0.990       .  S
O4489     Zr4509   2.385       .  S
O4490     Zr4510   2.386       .  S
O4490      H4517   0.964       .  S
O4491     Zr4503   2.377       .  S
O4491      C4493   1.274       .  A
O4492     Zr4510   2.398       .  S
O4492      C4493   1.280       .  A
O4494     Zr4506   2.443       .  S
O4494      C4496   1.290       .  A
O4495     Zr4509   2.419       .  S
O4495      C4496   1.287       .  A
C4496      C4808   1.464       .  S
O4497     Zr4506   2.481       .  S
O4497      C4499   1.294       .  A
O4498     Zr4510   2.456       .  S
O4498      C4499   1.294       .  A
C4499      C4698   1.511       .  S
O4500     Zr4503   2.403       .  S
O4500      C4502   1.271       .  A
O4501     Zr4509   2.460       .  S
O4501      C4502   1.288       .  A
C4502      C4711   1.487       .  S
Zr4503     O4505   2.436       .  S
Zr4503     O4511   2.364       .  S
Zr4503     O4512   2.343       .  S
Zr4503     O4515   2.358       .  S
Zr4503     O4513   2.354       .  S
O4504      H4524   0.990       .  S
O4504      H4529   0.990       .  S
O4505      H4525   0.990       .  S
Zr4506     O4507   2.433       .  S
Zr4506     O4508   2.434       .  S
Zr4506     O4512   2.374       .  S
Zr4506     O4511   2.365       .  S
Zr4506     O4516   2.377       .  S
Zr4506     O4514   2.381       .  S
O4507      H4523   0.990       .  S
O4508      H4522   0.990       .  S
O4508      H4532   0.990       .  S
Zr4509     O4512   2.393       .  S
Zr4509     O4514   2.408       .  S
Zr4509     O4515   2.389       .  S
Zr4510     O4511   2.393       .  S
Zr4510     O4513   2.384       .  S
Zr4510     O4516   2.382       .  S
O4511      H4519   0.965       .  S
O4514      H4518   0.966       .  S
O4515      H4520   0.965       .  S
O4533     Zr4545   2.469       .  S
O4533      C4535   1.293       .  A
O4534     Zr4571   2.454       .  S
O4534      C4535   1.294       .  A
C4535      C4771   1.490       .  S
O4536     Zr4548   2.377       .  S
O4536      C4538   1.275       .  A
O4537     Zr4572   2.457       .  S
O4537      C4538   1.291       .  A
C4538      C4758   1.459       .  S
O4539     Zr4548   2.383       .  S
O4539      C4541   1.279       .  A
O4540     Zr4571   2.462       .  S
O4540      C4541   1.291       .  A
O4542     Zr4545   2.488       .  S
O4542      C4544   1.298       .  A
O4543     Zr4572   2.432       .  S
O4543      C4544   1.288       .  A
C4544      C4731   1.496       .  S
Zr4545     O4546   2.434       .  S
Zr4545     O4547   2.434       .  S
Zr4545     O4551   2.373       .  S
Zr4545     O4552   2.377       .  S
Zr4545     O4575   2.371       .  S
Zr4545     O4577   2.396       .  S
O4546      H4589   0.990       .  S
O4547      H4588   0.990       .  S
O4547      H4592   0.990       .  S
Zr4548     O4550   2.435       .  S
Zr4548     O4552   2.362       .  S
Zr4548     O4551   2.345       .  S
Zr4548     O4576   2.356       .  S
Zr4548     O4578   2.360       .  S
O4549      H4590   0.990       .  S
O4549      H4593   0.990       .  S
O4550      H4583   0.990       .  S
O4551     Zr4571   2.387       .  S
O4552     Zr4572   2.392       .  S
O4552      H4579   0.966       .  S
O4553     Zr4565   2.481       .  S
O4553      C4555   1.295       .  A
O4554     Zr4572   2.415       .  S
O4554      C4555   1.284       .  A
C4555      C4668   1.483       .  S
O4556     Zr4568   2.393       .  S
O4556      C4558   1.279       .  A
O4557     Zr4571   2.477       .  S
O4557      C4558   1.296       .  A
C4558      C4718   1.484       .  S
O4559     Zr4568   2.377       .  S
O4559      C4561   1.276       .  A
O4560     Zr4572   2.458       .  S
O4560      C4561   1.291       .  A
C4561      C4688   1.464       .  S
O4562     Zr4565   2.468       .  S
O4562      C4564   1.293       .  A
O4563     Zr4571   2.440       .  S
O4563      C4564   1.292       .  A
C4564      C4678   1.487       .  S
Zr4565     O4566   2.437       .  S
Zr4565     O4567   2.434       .  S
Zr4565     O4573   2.379       .  S
Zr4565     O4574   2.368       .  S
Zr4565     O4577   2.392       .  S
Zr4565     O4575   2.372       .  S
O4566      H4586   0.990       .  S
O4566      H4591   0.990       .  S
O4567      H4587   0.990       .  S
Zr4568     O4569   2.432       .  S
Zr4568     O4570   2.436       .  S
Zr4568     O4574   2.341       .  S
Zr4568     O4573   2.362       .  S
Zr4568     O4578   2.361       .  S
Zr4568     O4576   2.357       .  S
O4569      H4585   0.990       .  S
O4570      H4584   0.990       .  S
O4570      H4594   0.990       .  S
Zr4571     O4574   2.380       .  S
Zr4571     O4576   2.379       .  S
Zr4571     O4577   2.423       .  S
Zr4572     O4573   2.394       .  S
Zr4572     O4575   2.402       .  S
Zr4572     O4578   2.375       .  S
O4573      H4581   0.966       .  S
O4576      H4580   0.966       .  S
O4577      H4582   0.966       .  S
O4595     Zr4607   2.450       .  S
O4595      C4597   1.288       .  A
O4596     Zr4633   2.438       .  S
O4596      C4597   1.289       .  A
C4597      C4788   1.477       .  S
O4598     Zr4610   2.412       .  S
O4598      C4600   1.283       .  A
O4599     Zr4634   2.488       .  S
O4599      C4600   1.299       .  A
C4600      C4671   1.481       .  S
O4601     Zr4610   2.451       .  S
O4601      C4603   1.290       .  A
O4602     Zr4633   2.422       .  S
O4602      C4603   1.286       .  A
C4603      C4888   1.487       .  S
O4604     Zr4607   2.427       .  S
O4604      C4606   1.288       .  A
O4605     Zr4634   2.476       .  S
O4605      C4606   1.295       .  A
C4606      C4741   1.502       .  S
Zr4607     O4608   2.434       .  S
Zr4607     O4609   2.435       .  S
Zr4607     O4613   2.376       .  S
Zr4607     O4614   2.359       .  S
Zr4607     O4637   2.375       .  S
Zr4607     O4639   2.359       .  S
O4608      H4651   0.990       .  S
O4609      H4650   0.990       .  S
O4609      H4654   0.990       .  S
Zr4610     O4611   2.434       .  S
Zr4610     O4612   2.435       .  S
Zr4610     O4614   2.379       .  S
Zr4610     O4613   2.372       .  S
Zr4610     O4638   2.355       .  S
Zr4610     O4640   2.378       .  S
O4611      H4652   0.989       .  S
O4611      H4655   0.990       .  S
O4612      H4645   0.990       .  S
O4613     Zr4633   2.379       .  S
O4614     Zr4634   2.416       .  S
O4614      H4641   0.964       .  S
O4615     Zr4627   2.382       .  S
O4615      C4617   1.276       .  A
O4616     Zr4634   2.535       .  S
O4616      C4617   1.309       .  A
C4617      C4781   1.495       .  S
O4618     Zr4630   2.420       .  S
O4618      C4620   1.285       .  A
O4619     Zr4633   2.414       .  S
O4619      C4620   1.283       .  A
C4620      C4748   1.455       .  S
O4621     Zr4630   2.410       .  S
O4621      C4623   1.282       .  A
O4622     Zr4634   2.513       .  S
O4622      C4623   1.305       .  A
C4623      C4881   1.508       .  S
O4624     Zr4627   2.448       .  S
O4624      C4626   1.290       .  A
O4625     Zr4633   2.407       .  S
O4625      C4626   1.283       .  A
Zr4627     O4628   2.436       .  S
Zr4627     O4629   2.432       .  S
Zr4627     O4635   2.385       .  S
Zr4627     O4636   2.342       .  S
Zr4627     O4639   2.350       .  S
Zr4627     O4637   2.375       .  S
O4628      H4648   0.990       .  S
O4628      H4653   0.990       .  S
O4629      H4649   0.990       .  S
Zr4630     O4631   2.434       .  S
Zr4630     O4632   2.432       .  S
Zr4630     O4636   2.357       .  S
Zr4630     O4635   2.369       .  S
Zr4630     O4640   2.367       .  S
Zr4630     O4638   2.353       .  S
O4631      H4647   0.990       .  S
O4632      H4646   0.989       .  S
O4632      H4656   0.990       .  S
Zr4633     O4636   2.381       .  S
Zr4633     O4638   2.383       .  S
Zr4633     O4639   2.379       .  S
Zr4634     O4635   2.405       .  S
Zr4634     O4637   2.403       .  S
Zr4634     O4640   2.404       .  S
O4635      H4643   0.966       .  S
O4638      H4642   0.965       .  S
O4639      H4644   0.965       .  S
C4657      C4658   1.407       .  A
C4657      C4662   1.384       .  A
C4657      H4664   1.084       .  S
C4658      C4659   1.409       .  A
C4659      C4660   1.407       .  A
C4660      C4661   1.411       .  A
C4661      C4662   1.407       .  A
C4662     Br4663   1.923       .  S
C4667      C4668   1.398       .  A
C4667      C4672   1.396       .  A
C4667      H4674   1.084       .  S
C4668      C4669   1.415       .  A
C4669      C4670   1.411       .  A
C4669     Br4676   1.917       .  S
C4670      C4671   1.404       .  A
C4670      H4675   1.083       .  S
C4671      C4672   1.413       .  A
C4672     Br4673   1.920       .  S
C4677      C4678   1.404       .  A
C4677      C4682   1.401       .  A
C4677      H4684   1.083       .  S
C4678      C4679   1.410       .  A
C4679      C4680   1.409       .  A
C4679     Br4686   1.917       .  S
C4680      C4681   1.408       .  A
C4680      H4685   1.084       .  S
C4681      C4682   1.409       .  A
C4682     Br4683   1.920       .  S
C4687      C4688   1.400       .  A
C4687      H4694   1.084       .  S
C4688      C4689   1.412       .  A
C4689      C4690   1.393       .  A
C4689     Br4696   1.921       .  S
C4690      H4695   1.084       .  S
C4691      C4692   1.411       .  A
C4692     Br4693   1.917       .  S
C4697      H4704   1.083       .  S
C4699     Br4706   1.919       .  S
C4700      C4701   1.410       .  A
C4700      H4705   1.083       .  S
C4701      C4702   1.411       .  A
C4702     Br4703   1.919       .  S
C4707      C4708   1.395       .  A
C4707      C4712   1.399       .  A
C4707      H4714   1.084       .  S
C4709      C4710   1.400       .  A
C4709     Br4716   1.909       .  S
C4710      C4711   1.404       .  A
C4710      H4715   1.083       .  S
C4712     Br4713   1.921       .  S
C4717      C4718   1.400       .  A
C4717      C4722   1.406       .  A
C4717      H4724   1.079       .  S
C4718      C4719   1.414       .  A
C4719      C4720   1.396       .  A
C4719     Br4726   1.920       .  S
C4720      C4721   1.400       .  A
C4720      H4725   1.083       .  S
C4721      C4722   1.416       .  A
C4727      C4728   1.403       .  A
C4727      C4732   1.409       .  A
C4727      H4734   1.084       .  S
C4728      C4729   1.414       .  A
C4729      C4730   1.405       .  A
C4729     Br4736   1.918       .  S
C4730      C4731   1.403       .  A
C4730      H4735   1.084       .  S
C4731      C4732   1.416       .  A
C4732     Br4733   1.910       .  S
C4737      C4738   1.414       .  A
C4737      C4742   1.421       .  A
C4737      H4744   1.083       .  S
C4738      C4739   1.417       .  A
C4739      C4740   1.390       .  A
C4739     Br4746   1.919       .  S
C4740      C4741   1.402       .  A
C4740      H4745   1.084       .  S
C4741      C4742   1.417       .  A
C4742     Br4743   1.915       .  S
C4747      C4748   1.403       .  A
C4747      C4752   1.400       .  A
C4747      H4754   1.084       .  S
C4748      C4749   1.404       .  A
C4749      C4750   1.386       .  A
C4749     Br4756   1.923       .  S
C4750      C4751   1.400       .  A
C4750      H4755   1.085       .  S
C4751      C4752   1.406       .  A
C4752     Br4753   1.915       .  S
C4757      C4758   1.400       .  A
C4757      H4764   1.084       .  S
C4759      C4760   1.396   1_455  A
C4759     Br4766   1.920   1_455  S
C4760      H4765   1.084       .  S
C4762     Br4763   1.912       .  S
C4767      C4768   1.404       .  A
C4767      C4772   1.410       .  A
C4767      H4774   1.083       .  S
C4768      C4769   1.417       .  A
C4770      C4771   1.400       .  A
C4770      H4775   1.083       .  S
C4772     Br4773   1.913       .  S
C4777      H4784   1.084       .  S
C4779     Br4786   1.918       .  S
C4780      C4781   1.412       .  A
C4780      H4785   1.084       .  S
C4781      C4782   1.412       .  A
C4782     Br4783   1.918       .  S
C4787      C4788   1.397       .  A
C4787      H4794   1.084       .  S
C4789      C4790   1.401       .  A
C4789     Br4796   1.909       .  S
C4790      C4791   1.404       .  A
C4790      H4795   1.083       .  S
C4791      C4792   1.422       .  A
C4792     Br4793   1.922       .  S
C4797      C4798   1.402       .  A
C4797      C4802   1.388       .  A
C4797      H4804   1.084       .  S
C4798      C4799   1.414       .  A
C4799      C4800   1.403       .  A
C4799     Br4806   1.919       .  S
C4800      C4801   1.404       .  A
C4800      H4805   1.083       .  S
C4801      C4802   1.408       .  A
C4802     Br4803   1.920       .  S
C4807      C4808   1.402       .  A
C4807      C4812   1.399       .  A
C4807      H4814   1.084       .  S
C4808      C4809   1.406       .  A
C4809      C4810   1.393       .  A
C4809     Br4816   1.916       .  S
C4810      C4811   1.400       .  A
C4810      H4815   1.084       .  S
C4811      C4812   1.408       .  A
C4812     Br4813   1.917       .  S
C4817      C4822   1.409       .  A
C4817      H4824   1.083       .  S
C4819      C4820   1.409       .  A
C4819     Br4826   1.920       .  S
C4820      H4825   1.083       .  S
C4822     Br4823   1.916       .  S
C4827      C4828   1.405       .  A
C4827      H4834   1.083       .  S
C4828      C4829   1.414   1_655  A
C4829     Br4836   1.920       .  S
C4830      C4831   1.405       .  A
C4830      H4835   1.083       .  S
C4831      C4832   1.420       .  A
C4832     Br4833   1.922       .  S
C4837      C4838   1.390       .  A
C4837      C4842   1.374       .  A
C4837      H4844   1.086       .  S
C4838      C4839   1.405       .  A
C4839      C4840   1.387       .  A
C4839     Br4846   1.920       .  S
C4840      C4841   1.400       .  A
C4841      C4842   1.407       .  A
C4842     Br4843   1.918       .  S
C4847      C4848   1.408       .  A
C4847      C4852   1.389       .  A
C4847      H4854   1.084       .  S
C4848      C4849   1.405       .  A
C4849      C4850   1.392       .  A
C4849     Br4856   1.921       .  S
C4850      C4851   1.410       .  A
C4850      H4855   1.084       .  S
C4851      C4852   1.407       .  A
C4852     Br4853   1.924       .  S
C4857      C4858   1.404       .  A
C4857      C4862   1.376       .  A
C4857      H4864   1.084       .  S
C4858      C4859   1.408       .  A
C4859      C4860   1.391       .  A
C4860      C4861   1.400       .  A
C4861      C4862   1.397       .  A
C4862     Br4863   1.920       .  S
C4867      C4868   1.400       .  A
C4867      C4872   1.397       .  A
C4867      H4874   1.084       .  S
C4868      C4869   1.402       .  A
C4869      C4870   1.392       .  A
C4869     Br4876   1.920       .  S
C4870      C4871   1.405       .  A
C4870      H4875   1.084       .  S
C4871      C4872   1.408       .  A
C4872     Br4873   1.913       .  S
C4877      C4882   1.409       .  A
C4877      H4884   1.083       .  S
C4878      C4879   1.424       .  A
C4879     Br4886   1.918       .  S
C4880      C4881   1.399       .  A
C4880      H4885   1.083       .  S
C4881      C4882   1.426       .  A
C4882     Br4883   1.915       .  S
C4887      C4888   1.408       .  A
C4887      C4892   1.400       .  A
C4887      H4894   1.083       .  S
C4888      C4889   1.415       .  A
C4889      C4890   1.400       .  A
C4889     Br4896   1.922       .  S
C4890      C4891   1.404       .  A
C4890      H4895   1.084       .  S
C4891      C4892   1.408       .  A
C4892     Br4893   1.919       .  S
