geometry optimzed in LAMMPS
_audit_creation_date              2020-11-30 
_audit_creation_method            'lammps2cif' 
_symmetry_space_group_name_H-M    'P1' 
_symmetry_Int_Tables_number       1 
_symmetry_cell_setting            triclinic 
loop_ 
_symmetry_equiv_pos_as_xyz 
  x,y,z 
_cell_length_a                    32.7991892 
_cell_length_b                    33.669205085147546 
_cell_length_c                    27.087524805667623 
_cell_angle_alpha                 90.10562723821043 
_cell_angle_beta                  116.96216238405228 
_cell_angle_gamma                 91.59600047545497 
loop_ 
_atom_site_label 
_atom_site_type_symbol 
_atom_site_fract_x 
_atom_site_fract_y 
_atom_site_fract_z 
_atom_site_charge 
C1          C  0.90231769  0.18152658  0.65019849     0.04000
C2          C  0.92416233  0.15190604  0.68863994    -0.12100
C3          C  0.90123568  0.13166629  0.71430101     0.01500
C4          C  0.85508814  0.13961343  0.69829682    -0.10600
C5          C  0.83217859  0.16780312  0.65739583     0.04000
C6          C  0.85657984  0.18979219  0.63524982    -0.10000
H7          H  0.95942489  0.14539757  0.69965940     0.09600
H8          H  0.83664020  0.12313255  0.71650856     0.07200
H9          H  0.83921908  0.21160496  0.60377462     0.07000
Zr10       Zr  0.47013282  0.09011865  0.49184283     2.17500
O11         O  0.45694369  0.01881881  0.49585923    -0.50400
O12         O  0.39162232  0.10996376  0.45238629    -0.73600
O13         O  0.44484476  0.07589489  0.56108104    -0.80400
O14         O  0.48123106  0.07810884  0.35855944    -0.82100
O15         O  0.48681725  0.11424416  0.63791614    -0.77800
O16         O  0.44015580  0.05611016  0.40255197    -0.89400
O17         O  0.38990997  0.17712714  0.44435426    -0.75400
O18         O  0.47120628  0.15170201  0.53569529    -0.84900
O19         O  0.46648491  0.13998853  0.42812112    -0.84500
O20         O  0.53938924  0.09180579  0.57750067    -0.71300
O21         O  0.53549924  0.08051478  0.47639963    -0.83400
Zr22       Zr  0.60491858  0.19628985  0.54129270     2.26400
Zr23       Zr  0.54128936  0.15505848  0.61959224     2.06300
Zr24       Zr  0.53278541  0.13205537  0.41413570     2.10000
Zr25       Zr  0.46831314  0.20134727  0.47250312     1.78800
O26         O  0.57995429  0.09386170  0.38433931    -0.92200
O27         O  0.44233251  0.24238374  0.52616290    -0.40100
O28         O  0.53441178  0.19433108  0.45751090    -0.76700
O29         O  0.53886930  0.20606826  0.55650543    -0.95400
O30         O  0.60704049  0.14676772  0.60485744    -0.88700
O31         O  0.60328933  0.13440004  0.49776658    -0.91500
C32         C  0.37055369  0.14270138  0.44012650     1.02200
C33         C  0.44990367  0.05597821  0.36167682     1.15200
C34         C  0.45518051  0.08802439  0.61030019     1.05900
O35         O  0.50469136  0.19766733  0.65953552    -0.93700
O36         O  0.59482546  0.20811489  0.67555115    -0.89400
O37         O  0.63677457  0.22828426  0.63183780    -0.82600
C38         C  0.62644809  0.22969343  0.67212440     1.12600
O39         O  0.59307093  0.01588456  0.57957959    -0.95600
Zr40       Zr  0.60485377  0.08500072  0.56154887     1.88900
O41         O  0.68423003  0.17598013  0.58338928    -0.72300
O42         O  0.58731068  0.12513984  0.70904991    -0.51600
O43         O  0.64676547  0.06776427  0.65891844    -0.96200
O44         O  0.63440914  0.04321390  0.51218305    -0.53500
O45         O  0.68282152  0.10939825  0.59663031    -0.72800
C46         C  0.70381118  0.14274326  0.60068051     0.99500
O47         O  0.61832515  0.26794484  0.54193405    -0.61600
O48         O  0.48598317  0.15723486  0.32160169    -0.56400
O49         O  0.62081801  0.21772695  0.46533999    -0.93100
O50         O  0.57219641  0.18348025  0.38728839    -0.91500
O51         O  0.42842124  0.22351281  0.37722429    -0.91900
O52         O  0.47622732  0.27150885  0.45637666    -0.90700
C53         C  0.60287885  0.21074269  0.41281186     1.18400
H54         H  0.43874761  0.13705226  0.39368885     0.34300
H55         H  0.54115819  0.23198394  0.57312708     0.45200
H56         H  0.62890123  0.13254226  0.48954136     0.38700
H57         H  0.53854480  0.07060572  0.60102485     0.35200
H58         H  0.41389187  0.25413695  0.49824709     0.27000
H59         H  0.57468329  0.13531018  0.73344598     0.32900
H60         H  0.67343633  0.05296291  0.66188252     0.38800
H61         H  0.39672364  0.22796288  0.37090261     0.33300
H62         H  0.48959939  0.13822575  0.29603647     0.32100
H63         H  0.56917742  0.10071748  0.34493938     0.33800
H64         H  0.65679094  0.06045345  0.50643412     0.32800
H65         H  0.50826790  0.27521147  0.46261907     0.36800
H66         H  0.60156425  0.27630517  0.50294038     0.29500
H67         H  0.42643886  0.01567761  0.49477020     0.33800
H68         H  0.62281531  0.00331595  0.59047303     0.36600
H69         H  0.45390067  0.15301366  0.31495765     0.29200
H70         H  0.60030625  0.27906488  0.55942539     0.42100
H71         H  0.50028889  0.22300697  0.63955003     0.32100
H72         H  0.43172436  0.22314227  0.54579814     0.39800
H73         H  0.60853272  0.03936452  0.47469386     0.31600
H74         H  0.57817058  0.09656411  0.70369626     0.31700
H75         H  0.47891689  0.01118122  0.53379230     0.31900
C76         C  0.17733747  0.13073405  0.38725361     0.04000
C77         C  0.14692577  0.15173546  0.34078375    -0.12100
C78         C  0.16385964  0.17908949  0.31482524     0.01500
C79         C  0.21150947  0.18516110  0.33571127    -0.10600
C80         C  0.24205978  0.16369555  0.38095895     0.04000
C81         C  0.22461383  0.13725831  0.40734069    -0.10000
H82         H  0.11030976  0.14742573  0.32553924     0.09600
H83         H  0.22500930  0.20663149  0.31669687     0.07200
H84         H  0.24779726  0.12176411  0.44394952     0.07000
C85         C  0.66676651  0.28945923  0.36757530     0.04000
C86         C  0.63536243  0.30911525  0.32013120    -0.12100
C87         C  0.65114926  0.33523200  0.29152696     0.01500
C88         C  0.69858636  0.34149810  0.31087423    -0.10600
C89         C  0.73000232  0.32169541  0.35743415     0.04000
C90         C  0.71378184  0.29643421  0.38622915    -0.10000
H91         H  0.59891410  0.30469348  0.30608208     0.09600
H92         H  0.72466670  0.02579236  0.29111121     0.07200
H93         H  0.73772108  0.28224505  0.42366637     0.07000
Zr94       Zr  0.96641638  0.26653738  0.47511722     2.17500
O95         O  0.96235923  0.19428709  0.47930388    -0.50400
O96         O  0.88521394  0.27743657  0.43712238    -0.73600
O97         O  0.94779951  0.24572810  0.54793208    -0.80400
O98         O  0.97830717  0.25836521  0.34115256    -0.82100
O99         O  0.97256186  0.29520304  0.61334429    -0.77800
O100        O  0.94193725  0.23076389  0.38771975    -0.89400
O101        O  0.88732978  0.00628084  0.43465465    -0.75400
O102        O  0.95713515  0.32770482  0.51265097    -0.84900
O103        O  0.95629505  0.31575192  0.40801023    -0.84500
O104        O  0.03454609  0.27592739  0.56119684    -0.71300
O105        O  0.03424638  0.26527923  0.46312618    -0.83400
Zr106      Zr  0.10266334  0.04198162  0.54945973     2.26400
Zr107      Zr  0.02568879  0.33847397  0.59693482     2.06300
Zr108      Zr  0.02439992  0.31560755  0.39694801     2.10000
Zr109      Zr  0.96453412  0.03667240  0.46858281     1.78800
O110        O  0.07448315  0.27728869  0.37228945    -0.92200
O111        O  0.92570148  0.07777904  0.50727298    -0.40100
O112        O  0.03519505  0.03345207  0.46233052    -0.76700
O113        O  0.03200980  0.04875166  0.55554205    -0.95400
O114        O  0.09448488  0.33887288  0.58718868    -0.88700
O115        O  0.09283507  0.32690200  0.48170007    -0.91500
C116        C  0.85987422  0.30769057  0.42024818     1.02200
C117        C  0.95059670  0.23259195  0.34601559     1.15200
C118        C  0.95099973  0.26222188  0.59227965     1.05900
O119        O  0.98666529  0.04419703  0.64263196    -0.93700
O120        O  0.08666371  0.05517773  0.67937786    -0.89400
O121        O  0.12867836  0.07704846  0.63659415    -0.82600
C122        C  0.11789624  0.07766820  0.67643017     1.12600
O123        O  0.10086439  0.20594136  0.55842609    -0.95600
Zr124      Zr  0.10209820  0.27776121  0.54841207     1.88900
O125        O  0.18426171  0.02739056  0.60202973    -0.72300
O126        O  0.07719893  0.30883591  0.68443141    -0.51600
O127        O  0.14028444  0.26036264  0.64608617    -0.96200
O128        O  0.14060661  0.24228909  0.50381579    -0.53500
O129        O  0.17684879  0.31044723  0.58305466    -0.72800
C130        C  0.19262892  0.34589346  0.58406655     0.99500
O131        O  0.10807506  0.11389844  0.54067143    -0.61600
O132        O  0.99980627  0.98688838  0.33017812    -0.56400
O133        O  0.12485217  0.06093992  0.47855843    -0.93100
O134        O  0.07995162  0.02436936  0.40112716    -0.91500
O135        O  0.92927320  0.04898618  0.36946097    -0.91900
O136        O  0.96717868  0.10696682  0.44906228    -0.90700
C137        C  0.10943526  0.05252691  0.42679860     1.18400
H138        H  0.92951499  0.30977975  0.37342249     0.34300
H139        H  0.03111267  0.07515061  0.56899275     0.45200
H140        H  0.11899532  0.32793366  0.47431693     0.38700
H141        H  0.03674815  0.25479034  0.58624939     0.35200
H142        H  0.91304519  0.05875598  0.52500312     0.27000
H143        H  0.06873914  0.32054440  0.71194169     0.32900
H144        H  0.16403887  0.28154128  0.66455263     0.39600
H145        H  0.90029549  0.06202014  0.36152229     0.33300
H146        H  0.01044594  0.96853159  0.31014505     0.32100
H147        H  0.06557879  0.28402727  0.33323876     0.33800
H148        H  0.15695175  0.26305938  0.49318635     0.32800
H149        H  0.99959919  0.11291320  0.45832548     0.36800
H150        H  0.08870790  0.11924790  0.50096097     0.29500
H151        H  0.93148779  0.18761281  0.47555404     0.33800
H152        H  0.13324188  0.19888962  0.58056978     0.36600
H153        H  0.96783934  0.97794826  0.31942256     0.29200
H154        H  0.09072934  0.12510633  0.55900737     0.42100
H155        H  0.99452986  0.03921694  0.68191211     0.32100
H156        H  0.95045609  0.09257215  0.53865901     0.39800
H157        H  0.11560738  0.23238533  0.46819695     0.31600
H158        H  0.06683229  0.28062930  0.68117191     0.31700
H159        H  0.98369605  0.18766376  0.51797736     0.31900
C160        C  0.41018677  0.05001634  0.71050640     0.04000
C161        C  0.41740138  0.32486033  0.69222944    -0.12100
C162        C  0.39787268  0.30203269  0.71993501     0.01500
C163        C  0.35017628  0.30253029  0.70107514    -0.10600
C164        C  0.33443994  0.02917151  0.69897011     0.04000
C165        C  0.36224357  0.05253387  0.68288678    -0.10000
H166        H  0.45384383  0.32369680  0.70531498     0.09600
H167        H  0.33427014  0.28386596  0.72042666     0.07200
H168        H  0.34644618  0.07183656  0.64763173     0.07000
C169        C  0.89084160  0.11942376  0.13801407     0.04000
C170        C  0.92086252  0.14103401  0.18630162    -0.12100
C171        C  0.90384071  0.16905098  0.21058071     0.01500
C172        C  0.85644318  0.17526963  0.18592497    -0.10600
C173        C  0.82591502  0.15387341  0.13842511     0.04000
C174        C  0.84356214  0.12637646  0.11432591    -0.10000
H175        H  0.95740022  0.13694498  0.20408980     0.09600
H176        H  0.84310799  0.19738736  0.20339788     0.07200
H177        H  0.82070814  0.11077172  0.07635828     0.07000
Zr178      Zr  0.58734589  0.09324535  0.02085618     2.17500
O179        O  0.58966726  0.02112432  0.01480532    -0.50400
O180        O  0.66788210  0.10823037  0.05361635    -0.73600
O181        O  0.60058120  0.07442536  0.94322407    -0.80400
O182        O  0.58401084  0.08512518  0.15949304    -0.82100
O183        O  0.56034552  0.11381319  0.86964834    -0.77800
O184        O  0.61829619  0.06056926  0.10962821    -0.89400
O185        O  0.67889250  0.17475822  0.07082563    -0.75400
O186        O  0.59207240  0.15435052  0.97933272    -0.84900
O187        O  0.59908900  0.14331715  0.08860087    -0.84500
O188        O  0.51663086  0.09748644  0.93814431    -0.71300
O189        O  0.52374665  0.08651275  0.04120412    -0.83400
Zr190      Zr  0.46679350  0.20392449  0.98274882     2.26400
Zr191      Zr  0.52017607  0.16040460  0.89841218     2.06300
Zr192      Zr  0.53405531  0.13856353  0.10665490     2.10000
Zr193      Zr  0.60419051  0.20384144  0.04725138     1.78800
O194        O  0.48740400  0.09610434  0.13504795    -0.92200
O195        O  0.63450599  0.24400699  0.99601904    -0.40100
O196        O  0.53869916  0.20020001  0.06532478    -0.76700
O197        O  0.53244260  0.21136940  0.96568083    -0.95400
O198        O  0.45577200  0.15351540  0.91635039    -0.88700
O199        O  0.46299722  0.14273352  0.02473484    -0.91500
C200        C  0.69347717  0.13976657  0.06946223     1.02200
C201        C  0.61179853  0.06187392  0.15290625     1.15200
C202        C  0.58750274  0.08552492  0.89310309     1.05900
O203        O  0.56274905  0.19941524  0.86046239    -0.93700
O204        O  0.47249571  0.21490104  0.84558066    -0.89400
O205        O  0.43731959  0.23821517  0.89487992    -0.82600
C206        C  0.44471820  0.23806131  0.85222596     1.12600
O207        O  0.46108777  0.02178560  0.94494853    -0.95600
Zr208      Zr  0.45352993  0.09215385  0.95863409     1.88900
O209        O  0.38503360  0.18557770  0.93773583    -0.72300
O210        O  0.46506452  0.13262430  0.80915948    -0.51600
O211        O  0.40911913  0.07003069  0.86255057    -0.96200
O212        O  0.42059876  0.05367408  0.00881934    -0.53500
O213        O  0.37877558  0.11845614  0.92496657    -0.72800
C214        C  0.36171169  0.15263988  0.92065176     0.99500
O215        O  0.46500136  0.27547744  0.99591268    -0.61600
O216        O  0.58311569  0.16343261  0.20028935    -0.56400
O217        O  0.44734046  0.22200120  0.05552241    -0.93100
O218        O  0.49250950  0.18774313  0.13263732    -0.91500
O219        O  0.65244375  0.22264792  0.14389330    -0.91900
O220        O  0.60212439  0.27463443  0.06432486    -0.90700
C221        C  0.46209727  0.21373477  0.10686306     1.18400
H222        H  0.62717248  0.13961736  0.12205977     0.34300
H223        H  0.53276204  0.23718206  0.95035510     0.45200
H224        H  0.43770018  0.14196442  0.03385359     0.38700
H225        H  0.51321650  0.07596180  0.91276023     0.35200
H226        H  0.66490088  0.25390748  0.02435435     0.27000
H227        H  0.47903760  0.13806368  0.78415611     0.32900
H228        H  0.38058751  0.05771092  0.86042614     0.38800
H229        H  0.67921022  0.23700368  0.14388485     0.33300
H230        H  0.57740158  0.14472884  0.22481802     0.32100
H231        H  0.50291560  0.09779514  0.17602140     0.33800
H232        H  0.40468171  0.07311987  0.02084376     0.32800
H233        H  0.58804537  0.27632634  0.08975308     0.36800
H234        H  0.48873353  0.28100076  0.03436788     0.29500
H235        H  0.61899625  0.01580918  0.01431256     0.33800
H236        H  0.43091492  0.00908622  0.93604982     0.36600
H237        H  0.61469555  0.15822007  0.20673341     0.29200
H238        H  0.47822062  0.28775225  0.97300050     0.42100
H239        H  0.56921753  0.22540119  0.88014290     0.32100
H240        H  0.64145416  0.22457581  0.97363366     0.39800
H241        H  0.44719981  0.04595618  0.04346038     0.31600
H242        H  0.46660320  0.10348783  0.81412868     0.31700
H243        H  0.56582272  0.01366337  0.97708007     0.31900
C244        C  0.16866727  0.19193451  0.87829277     0.04000
C245        C  0.21504874  0.19914683  0.89370597    -0.12100
C246        C  0.23622117  0.17899249  0.86705548     0.01500
C247        C  0.21013330  0.15207384  0.82345144    -0.10600
C248        C  0.16330326  0.14459727  0.80750946     0.04000
C249        C  0.14296445  0.16451137  0.83555554    -0.10000
H250        H  0.23503761  0.21958002  0.92772890     0.09600
H251        H  0.22680020  0.13615251  0.80332322     0.07200
H252        H  0.10728141  0.15817947  0.82465568     0.07000
C253        C  0.66463214  0.02623611  0.85247562     0.04000
C254        C  0.71136776  0.03150105  0.86896489    -0.12100
C255        C  0.73221360  0.01027841  0.84283430     0.01500
C256        C  0.71188383  0.31104873  0.81645642    -0.10600
C257        C  0.66471541  0.30252671  0.79671770     0.04000
C258        C  0.64057406  0.32377720  0.81897612    -0.10000
H259        H  0.73194346  0.05115560  0.90375945     0.09600
H260        H  0.73135084  0.29394395  0.80120354     0.07200
H261        H  0.60455018  0.31684344  0.80538194     0.07000
C262        C  0.38804627  0.28613493  0.14069650     0.04000
C263        C  0.34088174  0.29394932  0.11675440    -0.12100
C264        C  0.32425250  0.32302503  0.14007379     0.01500
C265        C  0.35537044  0.34463598  0.18665637    -0.10600
C266        C  0.40227510  0.33710772  0.21111116     0.04000
C267        C  0.41853830  0.30807253  0.18798277    -0.10000
H268        H  0.31740275  0.27785937  0.07954148     0.09600
H269        H  0.34012034  0.02334579  0.21664544     0.07200
H270        H  0.45498282  0.30338907  0.20614633     0.07000
Zr271      Zr  0.08866994  0.26150866  0.04333711     2.17500
O272        O  0.09415314  0.18958424  0.04192653    -0.50400
O273        O  0.16821511  0.27779973  0.07211692    -0.73600
O274        O  0.10307893  0.24007190  0.96762481    -0.80400
O275        O  0.08652750  0.26047259  0.18315543    -0.82100
O276        O  0.05628205  0.27218000  0.88917782    -0.77800
O277        O  0.11978301  0.23234416  0.13433380    -0.89400
O278        O  0.17727396  0.00511446  0.06839309    -0.75400
O279        O  0.08971350  0.31936811  0.99391075    -0.84900
O280        O  0.10178695  0.31562688  0.10604193    -0.84500
O281        O  0.01614236  0.26047755  0.96259661    -0.71300
O282        O  0.02742387  0.25737935  0.06809575    -0.83400
Zr283      Zr  0.96299229  0.03257042  0.97280895     2.26400
Zr284      Zr  0.01617264  0.32058231  0.91499201     2.06300
Zr285      Zr  0.03828579  0.31341315  0.12721540     2.10000
Zr286      Zr  0.10130168  0.03313749  0.03917548     1.78800
O287        O  0.99296775  0.27686543  0.16355076    -0.92200
O288        O  0.13429919  0.07184364  0.98931923    -0.40100
O289        O  0.03476179  0.02934271  0.05514495    -0.76700
O290        O  0.02960415  0.04032136  0.95718387    -0.95400
O291        O  0.95371538  0.31605796  0.93684605    -0.88700
O292        O  0.96499768  0.31297150  0.04781627    -0.91500
C293        C  0.19295852  0.30963763  0.08175971     1.02200
C294        C  0.11347654  0.23578568  0.17755814     1.15200
C295        C  0.08718925  0.24728274  0.91579598     1.05900
O296        O  0.05759402  0.03154145  0.84965836    -0.93700
O297        O  0.97013965  0.04332148  0.83713090    -0.89400
O298        O  0.93442084  0.06695202  0.88566596    -0.82600
C299        C  0.94225966  0.06645290  0.84342760     1.12600
O300        O  0.96590936  0.18787025  0.00861722    -0.95600
Zr301      Zr  0.95529780  0.25806053  0.98772797     1.88900
O302        O  0.88116589  0.01368379  0.92374687    -0.72300
O303        O  0.95922405  0.28902056  0.82951347    -0.51600
O304        O  0.92256105  0.21820272  0.90260916    -0.96200
O305        O  0.91040731  0.23342860  0.03332626    -0.53500
O306        O  0.88026022  0.28268697  0.93612406    -0.72800
C307        C  0.86181832  0.31637476  0.92952525     0.99500
O308        O  0.96121668  0.10381191  0.98698553    -0.61600
O309        O  0.08213772  0.99354637  0.18734203    -0.56400
O310        O  0.94392830  0.05171189  0.04625004    -0.93100
O311        O  0.99057171  0.01816219  0.12318014    -0.91500
O312        O  0.14417789  0.05125896  0.13699644    -0.91900
O313        O  0.10105052  0.10415972  0.05513420    -0.90700
C314        C  0.96030045  0.04442327  0.09818934     1.18400
H315        H  0.13045454  0.31344502  0.13908519     0.34300
H316        H  0.02995691  0.06622926  0.94206516     0.45200
H317        H  0.94062252  0.31335432  0.05853152     0.38700
H318        H  0.01306560  0.23742160  0.93975820     0.35200
H319        H  0.16193660  0.08538054  0.01853127     0.27000
H320        H  0.97211531  0.29215505  0.80296072     0.32900
H321        H  0.89346588  0.20689967  0.90007217     0.38800
H322        H  0.17306566  0.06390382  0.14068032     0.33300
H323        H  0.07294088  0.97925959  0.21281123     0.32100
H324        H  0.01013192  0.28061959  0.20423490     0.33800
H325        H  0.88868930  0.21328716  0.00723844     0.32800
H326        H  0.07279778  0.10798320  0.05896701     0.36800
H327        H  0.98482951  0.10889531  0.02563377     0.29500
H328        H  0.12383334  0.18491016  0.04196745     0.33800
H329        H  0.99922819  0.18444356  0.02311502     0.36600
H330        H  0.11234393  0.98295874  0.19540436     0.29200
H331        H  0.97478618  0.11627142  0.96454064     0.42100
H332        H  0.07135303  0.05394727  0.87638570     0.32100
H333        H  0.14644548  0.05186264  0.97299546     0.39800
H334        H  0.89082577  0.25549211  0.03255632     0.31600
H335        H  0.96081212  0.26024297  0.83735666     0.31700
H336        H  0.07072479  0.18076839  0.00461792     0.31900
C337        C  0.24177429  0.30339898  0.09679452    -0.15500
C338        C  0.27479231  0.33191561  0.11750399    -0.30700
H339        H  0.25127291  0.27309644  0.09413171     0.13500
H340        H  0.26579276  0.36166997  0.12380427     0.14100
C341        C  0.78501622  0.34607743  0.88582081    -0.15500
C342        C  0.81185413  0.31484132  0.89592006    -0.30700
H343        H  0.79995155  0.04167113  0.88531179     0.13500
H344        H  0.79629448  0.28554336  0.88094151     0.14100
C345        C  0.14830369  0.21194130  0.90945118    -0.15500
C346        C  0.10592630  0.22568379  0.88434154    -0.30700
H347        H  0.16973730  0.21784377  0.95340321     0.13500
H348        H  0.08594640  0.22327626  0.83960039     0.14100
C349        C  0.28639582  0.18388911  0.88878852    -0.15500
C350        C  0.31152564  0.15215730  0.89373249    -0.30700
H351        H  0.30302895  0.21243251  0.90634173     0.13500
H352        H  0.29445325  0.12323209  0.87967433     0.14100
C353        C  0.60486713  0.06414813  0.85988679    -0.15500
C354        C  0.64514354  0.04653808  0.88438249    -0.30700
H355        H  0.58579676  0.06460430  0.81497781     0.13500
H356        H  0.66600818  0.04944076  0.92898370     0.14100
C357        C  0.44338825  0.23678937  0.13841381    -0.15500
C358        C  0.40512710  0.25803351  0.11230967    -0.30700
H359        H  0.46173781  0.23699304  0.18334577     0.13500
H360        H  0.38541029  0.25520925  0.06757093     0.14100
C361        C  0.77596059  0.16177665  0.11484348    -0.15500
C362        C  0.74293461  0.13401428  0.08730990    -0.30700
H363        H  0.76620914  0.19022659  0.12453895     0.13500
H364        H  0.75253242  0.10461766  0.08065760     0.14100
C365        C  0.94402478  0.06875743  0.13169430    -0.15500
C366        C  0.90765496  0.09245380  0.10765293    -0.30700
H367        H  0.96235177  0.06742511  0.17656050     0.13500
H368        H  0.88798833  0.09145111  0.06280393     0.14100
C369        C  0.42723040  0.27548086  0.76560036    -0.15500
C370        C  0.41802071  0.26619790  0.80796191    -0.30700
H371        H  0.45748263  0.26385473  0.76473719     0.13500
H372        H  0.38984415  0.28026463  0.81104999     0.14100
C373        C  0.24296961  0.35174994  0.60736155    -0.15500
C374        C  0.27182298  0.32272013  0.63498099    -0.30700
H375        H  0.27219914  0.97051380  0.67840537     0.13500
H376        H  0.25796307  0.29536977  0.64354158     0.14100
C377        C  0.14453341  0.10661061  0.72123555    -0.15500
C378        C  0.13539508  0.11488905  0.76359145    -0.30700
H379        H  0.17223402  0.12273126  0.71778265     0.13500
H380        H  0.10572108  0.10077275  0.76496123     0.14100
C381        C  0.92422244  0.20397065  0.29992303    -0.15500
C382        C  0.93555639  0.19386192  0.25958298    -0.30700
H383        H  0.89330173  0.19071309  0.29905295     0.13500
H384        H  0.96817463  0.20413749  0.26219313     0.14100
C385        C  0.77966152  0.32877144  0.37619667    -0.15500
C386        C  0.81040845  0.30056908  0.40087665    -0.30700
H387        H  0.79090918  0.35736393  0.36734659     0.13500
H388        H  0.80874354  0.93485593  0.41663148     0.14100
C389        C  0.63999735  0.03530934  0.19838566    -0.15500
C390        C  0.63113500  0.02628510  0.24098247    -0.30700
H391        H  0.66906194  0.02220276  0.19622126     0.13500
H392        H  0.60014584  0.03668919  0.24120575     0.14100
C393        C  0.14112390  0.21015521  0.22423565    -0.15500
C394        C  0.13189874  0.20221920  0.26685799    -0.30700
H395        H  0.17060365  0.19697046  0.22320316     0.13500
H396        H  0.10048642  0.21228948  0.26626442     0.14100
C397        C  0.16106695  0.10393871  0.41841700    -0.15500
C398        C  0.12568387  0.07766759  0.39399354    -0.30700
H399        H  0.18040626  0.10481686  0.46331481     0.13500
H400        H  0.10820644  0.07473728  0.34911456     0.14100
C401        C  0.32069219  0.13922329  0.42082856    -0.15500
C402        C  0.29211280  0.16944030  0.40026504    -0.30700
H403        H  0.30683929  0.10986701  0.42257343     0.13500
H404        H  0.30520480  0.19817461  0.39460054     0.14100
C405        C  0.65282644  0.25921885  0.71642717    -0.15500
C406        C  0.64007488  0.27049527  0.75491648    -0.30700
H407        H  0.68184567  0.27414616  0.71456053     0.13500
H408        H  0.60895755  0.25746272  0.75378424     0.14100
C409        C  0.42135560  0.02948406  0.31420831    -0.15500
C410        C  0.43328755  0.01973630  0.27441472    -0.30700
H411        H  0.38911506  0.01810097  0.31161715     0.13500
H412        H  0.46598658  0.37262049  0.26119318     0.14100
C413        C  0.42718648  0.07036433  0.63491324    -0.15500
C414        C  0.43923384  0.07100056  0.68932685    -0.30700
H415        H  0.39595158  0.05426790  0.60683043     0.13500
H416        H  0.47239268  0.08354046  0.71851981     0.14100
C417        C  0.61697028  0.23653989  0.37845885    -0.15500
C418        C  0.65208964  0.26319501  0.40091829    -0.30700
H419        H  0.59791907  0.23362795  0.33365755     0.13500
H420        H  0.67287770  0.26421651  0.44560307     0.14100
C421        C  0.78213608  0.17264612  0.63418265    -0.15500
C422        C  0.75397972  0.14120462  0.62741921    -0.30700
H423        H  0.76806418  0.20130275  0.61784598     0.13500
H424        H  0.76819568  0.11209514  0.64050351     0.14100
C425        C  0.92579900  0.10158625  0.75649121    -0.15500
C426        C  0.91697166  0.09488697  0.79963902    -0.30700
H427        H  0.95351487  0.08637072  0.75373698     0.13500
H428        H  0.89146905  0.11207101  0.80454599     0.14100
C429        C  0.92664106  0.20218682  0.62320936    -0.15500
C430        C  0.92796103  0.24191293  0.62088901    -0.30700
H431        H  0.94522187  0.18456097  0.60688652     0.13500
H432        H  0.91313729  0.25966498  0.64185229     0.14100
C433        C  0.89775970  0.50646390  0.66004130     0.04000
C434        C  0.92448868  0.48520584  0.70810514    -0.12100
C435        C  0.90343616  0.45970874  0.73139203     0.01500
C436        C  0.85544885  0.45559607  0.70609781    -0.10600
C437        C  0.82857644  0.47689558  0.65856097     0.04000
C438        C  0.85002510  0.50177920  0.63523160    -0.10000
H439        H  0.96149227  0.48777670  0.72662285     0.09600
H440        H  0.83886608  0.43527438  0.72286617     0.07200
H441        H  0.82974382  0.51721330  0.59719399     0.07000
Zr442      Zr  0.47114239  0.42530520  0.48009166     2.17500
O443        O  0.46040164  0.35333316  0.47810984    -0.50400
O444        O  0.39090846  0.44023005  0.44305527    -0.73600
O445        O  0.45396631  0.40303688  0.55434713    -0.80400
O446        O  0.47930938  0.42036272  0.34342778    -0.82100
O447        O  0.49806402  0.44016234  0.63158590    -0.77800
O448        O  0.44300394  0.39295514  0.39023912    -0.89400
O449        O  0.38416075  0.50684177  0.43030398    -0.75400
O450        O  0.47011223  0.48437542  0.52761147    -0.84900
O451        O  0.46122268  0.47779668  0.41714981    -0.84500
O452        O  0.54339267  0.42784726  0.56184035    -0.71300
O453        O  0.53483191  0.42284666  0.45936801    -0.83400
Zr454      Zr  0.59596507  0.54017278  0.52635307     2.26400
Zr455      Zr  0.54281253  0.48833796  0.60822954     2.06300
Zr456      Zr  0.52561458  0.47681226  0.39803947     2.10000
Zr457      Zr  0.46052920  0.53671228  0.46481812     1.78800
O458        O  0.56844502  0.44366459  0.35721532    -0.92200
O459        O  0.42814977  0.56881086  0.51912932    -0.40100
O460        O  0.52424988  0.53715789  0.44400737    -0.76700
O461        O  0.53221267  0.54249923  0.54675928    -0.95400
O462        O  0.60669414  0.48740215  0.58876162    -0.88700
O463        O  0.59760186  0.48113950  0.47896569    -0.91500
C464        C  0.36731245  0.47154883  0.42726262     1.02200
C465        C  0.45115723  0.39527031  0.34827818     1.15200
C466        C  0.46813872  0.41250132  0.60564625     1.05900
O467        O  0.50645524  0.52496204  0.65425951    -0.93700
O468        O  0.59320947  0.54217938  0.66556118    -0.89400
O469        O  0.62714292  0.57141850  0.61726644    -0.82600
C470        C  0.62053240  0.56798718  0.66024853     1.12600
O471        O  0.60232003  0.35634648  0.54424599    -0.95600
Zr472      Zr  0.60687010  0.42841454  0.54077045     1.88900
O473        O  0.67633958  0.52631287  0.56537944    -0.72300
O474        O  0.59659089  0.45715594  0.69320530    -0.51600
O475        O  0.64948154  0.40197151  0.63343350    -0.96200
O476        O  0.63632171  0.39561586  0.48367050    -0.53500
O477        O  0.68277194  0.45947457  0.57658767    -0.72800
C478        C  0.69975730  0.49490186  0.58095189     0.99500
O479        O  0.60106518  0.61247873  0.52362049    -0.61600
O480        O  0.47216726  0.50420466  0.30968654    -0.56400
O481        O  0.61483148  0.56166353  0.45386134    -0.93100
O482        O  0.56845299  0.52733035  0.37477625    -0.91500
O483        O  0.42012638  0.56403671  0.37233252    -0.91900
O484        O  0.46484639  0.60886096  0.46282410    -0.90700
C485        C  0.59961060  0.55386813  0.40199739     1.18400
H486        H  0.43298632  0.47413081  0.38339796     0.34300
H487        H  0.53316150  0.56735364  0.56519784     0.45200
H488        H  0.62240647  0.48221064  0.46901147     0.38700
H489        H  0.54564367  0.40525603  0.58472756     0.35200
H490        H  0.39876332  0.57924832  0.49134673     0.27000
H491        H  0.58719273  0.46550659  0.72151869     0.32900
H492        H  0.65850650  0.42549103  0.65853296     0.38800
H493        H  0.39324704  0.54592951  0.35214598     0.33300
H494        H  0.48012187  0.49194912  0.28205134     0.32100
H495        H  0.55179144  0.44918180  0.31713102     0.33800
H496        H  0.65713312  0.41552263  0.47921582     0.32800
H497        H  0.49052339  0.61502795  0.45407174     0.36800
H498        H  0.58343539  0.61936252  0.48409921     0.29500
H499        H  0.42952124  0.34853220  0.47537481     0.33800
H500        H  0.63422834  0.34778510  0.55795836     0.36600
H501        H  0.44190919  0.49203137  0.30152759     0.29200
H502        H  0.58176575  0.62163486  0.54052632     0.42100
H503        H  0.49555773  0.54928183  0.63218492     0.32100
H504        H  0.41912199  0.54670721  0.53655191     0.39800
H505        H  0.60978136  0.39301338  0.44648546     0.31600
H506        H  0.58861015  0.42837469  0.68743657     0.31700
H507        H  0.48185615  0.34454396  0.51566700     0.31900
C508        C  0.17043115  0.46228793  0.35664336     0.04000
C509        C  0.14231442  0.48028926  0.30627458    -0.12100
C510        C  0.16153869  0.50223005  0.27756476     0.01500
C511        C  0.20945688  0.50605834  0.29973370    -0.10600
C512        C  0.23787522  0.48795515  0.34980587     0.04000
C513        C  0.21801249  0.46657745  0.37837447    -0.10000
H514        H  0.10543530  0.47821781  0.29014233     0.09600
H515        H  0.22482017  0.52391066  0.27895718     0.07200
H516        H  0.23941478  0.45374307  0.41814885     0.07000
C517        C  0.67708713  0.62509394  0.36896518     0.04000
C518        C  0.64898203  0.64794692  0.32350376    -0.12100
C519        C  0.66831140  0.67435372  0.29943862     0.01500
C520        C  0.71640549  0.67822872  0.32197576    -0.10600
C521        C  0.74498700  0.65547426  0.36745731     0.04000
C522        C  0.72476173  0.62912240  0.39077858    -0.10000
H523        H  0.61211617  0.64583005  0.30748323     0.09600
H524        H  0.71121239  0.36210376  0.28987685     0.07200
H525        H  0.74585253  0.61240583  0.42713688     0.07000
Zr526      Zr  0.98095578  0.59495113  0.50639780     2.17500
O527        O  0.97340994  0.52261589  0.50551976    -0.50400
O528        O  0.89995718  0.60899760  0.46436009    -0.73600
O529        O  0.96186090  0.57232297  0.57870110    -0.80400
O530        O  0.99358672  0.58957359  0.37312936    -0.82100
O531        O  0.00067312  0.61090028  0.65606344    -0.77800
O532        O  0.95560909  0.56167391  0.41777285    -0.89400
O533        O  0.87461018  0.34333619  0.41978276    -0.75400
O534        O  0.97385536  0.65540874  0.54707547    -0.84900
O535        O  0.97559999  0.64537131  0.44246016    -0.84500
O536        O  0.04886544  0.60077040  0.59293902    -0.71300
O537        O  0.04921234  0.59172958  0.49484984    -0.83400
Zr538      Zr  0.08554577  0.38832368  0.52069527     2.26400
Zr539      Zr  0.04248661  0.66254726  0.63274267     2.06300
Zr540      Zr  0.04425240  0.64365820  0.43212979     2.10000
Zr541      Zr  0.94829932  0.37672722  0.44614871     1.78800
O542        O  0.09305293  0.60305488  0.40796148    -0.92200
O543        O  0.91308161  0.41581896  0.49155293    -0.40100
O544        O  0.01668574  0.37794197  0.43463552    -0.76700
O545        O  0.01645191  0.38916104  0.53109470    -0.95400
O546        O  0.11141149  0.66064869  0.62340281    -0.88700
O547        O  0.11179357  0.65079389  0.51846300    -0.91500
C548        C  0.87584573  0.63996339  0.44651259     1.02200
C549        C  0.96424422  0.56467423  0.37624064     1.15200
C550        C  0.97340511  0.58168329  0.62944101     1.05900
O551        O  0.98817030  0.37564032  0.64113710    -0.93700
O552        O  0.06714388  0.39744555  0.64910368    -0.89400
O553        O  0.10785671  0.42565916  0.60823240    -0.82600
C554        C  0.09520290  0.42388340  0.64696835     1.12600
O555        O  0.11209739  0.52852646  0.58982085    -0.95600
Zr556      Zr  0.11670548  0.60026927  0.58154270     1.88900
O557        O  0.16772025  0.37642434  0.56509214    -0.72300
O558        O  0.09321331  0.64056301  0.72570737    -0.51600
O559        O  0.14878293  0.57951148  0.67762385    -0.96200
O560        O  0.15856169  0.56684232  0.53932342    -0.53500
O561        O  0.19211995  0.63145414  0.62584496    -0.72800
C562        C  0.20992882  0.66662434  0.63309015     0.99500
O563        O  0.08586927  0.46024352  0.50968935    -0.61600
O564        O  0.97866617  0.33977892  0.30358413    -0.56400
O565        O  0.10634909  0.40655114  0.44771634    -0.93100
O566        O  0.06682884  0.36556422  0.37291353    -0.91500
O567        O  0.90329777  0.38771513  0.34730101    -0.91900
O568        O  0.94632935  0.44711277  0.42479367    -0.90700
C569        C  0.09464025  0.39484487  0.39767405     1.18400
H570        H  0.94886220  0.64096109  0.40719985     0.34300
H571        H  0.01395184  0.41474398  0.54551916     0.45200
H572        H  0.13880773  0.65136300  0.51271038     0.38700
H573        H  0.05036813  0.57880898  0.61655053     0.35200
H574        H  0.88285533  0.42268098  0.46146761     0.27000
H575        H  0.07602245  0.64468140  0.74726459     0.32900
H576        H  0.18085142  0.57303357  0.68781648     0.39600
H577        H  0.87465679  0.39931292  0.34364183     0.33300
H578        H  0.98807217  0.32398249  0.27981153     0.32100
H579        H  0.07853995  0.60291374  0.36697501     0.33800
H580        H  0.17209405  0.58827046  0.52586775     0.32800
H581        H  0.97868231  0.45519871  0.43642711     0.36800
H582        H  0.07109443  0.46471123  0.46927738     0.29500
H583        H  0.94333195  0.51656746  0.50453616     0.33800
H584        H  0.14384702  0.51958739  0.60363556     0.36600
H585        H  0.94695520  0.33024731  0.29323366     0.29200
H586        H  0.06303766  0.46945011  0.52127350     0.42100
H587        H  0.96985596  0.39526710  0.61326996     0.32100
H588        H  0.90581128  0.39649206  0.51414616     0.39800
H589        H  0.13455874  0.55404501  0.50519889     0.31600
H590        H  0.09381332  0.61134626  0.72211625     0.31700
H591        H  0.99629988  0.51435919  0.54267125     0.31900
C592        C  0.38984789  0.34791600  0.64642478     0.04000
C593        C  0.43289327  0.69233762  0.75211357    -0.12100
C594        C  0.40636137  0.67108854  0.77283696     0.01500
C595        C  0.35896765  0.67601470  0.74816660    -0.10600
C596        C  0.32229001  0.32571938  0.65582526     0.04000
C597        C  0.34245643  0.34816754  0.62851504    -0.10000
H598        H  0.46963802  0.68924850  0.77109962     0.09600
H599        H  0.33880427  0.66016720  0.76473415     0.07200
H600        H  0.32129268  0.36494320  0.59219860     0.07000
C601        C  0.89630928  0.46098643  0.16187608     0.04000
C602        C  0.92704773  0.48332515  0.20855067    -0.12100
C603        C  0.91074873  0.50958393  0.23524261     0.01500
C604        C  0.86326546  0.51395925  0.21434481    -0.10600
C605        C  0.83212602  0.49203433  0.16775572     0.04000
C606        C  0.84906985  0.46593059  0.14129027    -0.10000
H607        H  0.96362097  0.48072069  0.22383400     0.09600
H608        H  0.85045316  0.53478340  0.23413241     0.07200
H609        H  0.82574741  0.44973617  0.10412239     0.07000
Zr610      Zr  0.59333760  0.43017038  0.03223864     2.17500
O611        O  0.59363002  0.35851086  0.01977121    -0.50400
O612        O  0.67487240  0.44386256  0.07808885    -0.73600
O613        O  0.61867130  0.41539139  0.96319603    -0.80400
O614        O  0.57135698  0.41402268  0.15676628    -0.82100
O615        O  0.59745300  0.46524703  0.90047194    -0.77800
O616        O  0.61249340  0.39138583  0.11419742    -0.89400
O617        O  0.68622485  0.50951713  0.10172443    -0.75400
O618        O  0.60851500  0.49414429  0.00649985    -0.84900
O619        O  0.59792812  0.47510264  0.10287666    -0.84500
O620        O  0.53128343  0.44084953  0.94277876    -0.71300
O621        O  0.52139815  0.42295441  0.03455993    -0.83400
Zr622      Zr  0.47516925  0.54495463  0.98552313     2.26400
Zr623      Zr  0.54587209  0.50626043  0.91849089     2.06300
Zr624      Zr  0.52525699  0.46967965  0.10321238     2.10000
Zr625      Zr  0.61191838  0.53881895  0.07595442     1.78800
O626        O  0.46756077  0.42741573  0.11216918    -0.92200
O627        O  0.65088466  0.58734393  0.04424852    -0.40100
O628        O  0.53851567  0.53408340  0.07517782    -0.76700
O629        O  0.54904284  0.55245212  0.98740191    -0.95400
O630        O  0.47280426  0.49949039  0.91727376    -0.88700
O631        O  0.46208282  0.48097191  0.01438991    -0.91500
C632        C  0.70069832  0.47486673  0.09878748     1.02200
C633        C  0.60076314  0.39090349  0.15335926     1.15200
C634        C  0.61783551  0.43290691  0.92072021     1.05900
O635        O  0.60171808  0.54893594  0.90629599    -0.93700
O636        O  0.50589142  0.56383422  0.86720360    -0.89400
O637        O  0.46154880  0.58614298  0.90549205    -0.82600
C638        C  0.47710227  0.58787827  0.86955886     1.12600
O639        O  0.46791853  0.36483625  0.93454109    -0.95600
Zr640      Zr  0.45972094  0.43556568  0.94555832     1.88900
O641        O  0.39332923  0.53040764  0.92547214    -0.72300
O642        O  0.50341974  0.48456977  0.82202451    -0.51600
O643        O  0.43131725  0.41919423  0.84754386    -0.96200
O644        O  0.41001616  0.39587728  0.97269580    -0.53500
O645        O  0.38619001  0.46537479  0.89900670    -0.72800
C646        C  0.36970041  0.49947811  0.89818301     0.99500
O647        O  0.47526812  0.61600828  0.00417248    -0.61600
O648        O  0.56141562  0.48855194  0.20109146    -0.56400
O649        O  0.44770731  0.55948461  0.05270253    -0.93100
O650        O  0.48524366  0.52044407  0.12755300    -0.91500
O651        O  0.65182385  0.54495753  0.17665416    -0.91900
O652        O  0.61200617  0.60566016  0.11063134    -0.90700
C653        C  0.45840535  0.54881527  0.10247510     1.18400
H654        H  0.62261985  0.46887765  0.13854487     0.34300
H655        H  0.55326605  0.57916902  0.97736908     0.45200
H656        H  0.43365012  0.48005532  0.01688621     0.38700
H657        H  0.53094624  0.42141838  0.91630680     0.35200
H658        H  0.67942314  0.59482491  0.07783856     0.27000
H659        H  0.52277831  0.49341978  0.80450919     0.32900
H660        H  0.39924400  0.40968846  0.83487840     0.38800
H661        H  0.68172263  0.55800209  0.18493105     0.33300
H662        H  0.55457995  0.46606285  0.21994883     0.32100
H663        H  0.46912772  0.43540078  0.14820655     0.33800
H664        H  0.38159145  0.39084298  0.93789523     0.32800
H665        H  0.58099356  0.61521898  0.08666755     0.36800
H666        H  0.49042156  0.61911914  0.04504013     0.29500
H667        H  0.62467957  0.35293880  0.02459393     0.33800
H668        H  0.43727136  0.35451424  0.90748927     0.36600
H669        H  0.59470438  0.48750557  0.21300401     0.29200
H670        H  0.49788431  0.62816670  0.99349595     0.42100
H671        H  0.59726023  0.57592643  0.91720768     0.32100
H672        H  0.66126046  0.57170634  0.02131425     0.39800
H673        H  0.40098634  0.41410785  0.99446120     0.31600
H674        H  0.50506658  0.45524269  0.82277056     0.31700
H675        H  0.57318832  0.35331862  0.97992555     0.31900
C676        C  0.17005947  0.53882102  0.83601720     0.04000
C677        C  0.21787992  0.54302687  0.86091250    -0.12100
C678        C  0.24303166  0.52768005  0.83561085     0.01500
C679        C  0.21962169  0.50817879  0.78377511    -0.10600
C680        C  0.17181025  0.50231309  0.75849954     0.04000
C681        C  0.14686823  0.51848650  0.78452150    -0.10000
H682        H  0.23583814  0.55767737  0.90112690     0.09600
H683        H  0.23867914  0.49650145  0.76346662     0.07200
H684        H  0.10999461  0.51459406  0.76572206     0.07000
C685        C  0.66234168  0.35442107  0.85800178     0.04000
C686        C  0.70909666  0.36300197  0.87672561    -0.12100
C687        C  0.73447435  0.34054943  0.85778009     0.01500
C688        C  0.70703412  0.64216840  0.81008054    -0.10600
C689        C  0.65981248  0.63454891  0.79020763     0.04000
C690        C  0.63601275  0.65601743  0.81269806    -0.10000
H691        H  0.72643312  0.38530253  0.90904356     0.09600
H692        H  0.72602373  0.62476042  0.79439776     0.07200
H693        H  0.59981245  0.64974594  0.79873544     0.07000
C694        C  0.38593840  0.62083745  0.13821488     0.04000
C695        C  0.33898182  0.62843792  0.11317813    -0.12100
C696        C  0.32076449  0.65415449  0.13866238     0.01500
C697        C  0.35045170  0.67327552  0.18852794    -0.10600
C698        C  0.39756202  0.66619222  0.21401040     0.04000
C699        C  0.41516091  0.63995028  0.18873420    -0.10000
H700        H  0.31696550  0.61465559  0.07338976     0.09600
H701        H  0.34294850  0.36757645  0.20407947     0.07200
H702        H  0.45167962  0.63545984  0.20758483     0.07000
Zr703      Zr  0.08448577  0.59073221  0.00770757     2.17500
O704        O  0.08795514  0.51918929  0.99712561    -0.50400
O705        O  0.16429116  0.60873818  0.04302321    -0.73600
O706        O  0.10086848  0.57686637  0.92992090    -0.80400
O707        O  0.08333245  0.57944240  0.14601571    -0.82100
O708        O  0.05851749  0.61715153  0.85859799    -0.77800
O709        O  0.11799913  0.55665725  0.09562992    -0.89400
O710        O  0.17799130  0.34501916  0.07917998    -0.75400
O711        O  0.08756493  0.65373204  0.96979932    -0.84900
O712        O  0.09525677  0.63901994  0.07761370    -0.84500
O713        O  0.01309653  0.59471840  0.92598170    -0.71300
O714        O  0.02119612  0.58149970  0.02862848    -0.83400
Zr715      Zr  0.96500084  0.37078727  0.99730282     2.26400
Zr716      Zr  0.01542754  0.65925845  0.88985408     2.06300
Zr717      Zr  0.03091276  0.63169942  0.09649443     2.10000
Zr718      Zr  0.10289826  0.37313487  0.05635075     1.78800
O719        O  0.98312115  0.58871437  0.12251204    -0.92200
O720        O  0.12895109  0.40874049  0.99705342    -0.40100
O721        O  0.03897462  0.37203497  0.07754407    -0.76700
O722        O  0.02912923  0.37563324  0.97680090    -0.95400
O723        O  0.95118695  0.65023573  0.90823055    -0.88700
O724        O  0.95876982  0.63553742  0.01597255    -0.91500
C725        C  0.18926207  0.64022839  0.06287156     1.02200
C726        C  0.11182035  0.55735587  0.13917535     1.15200
C727        C  0.08752376  0.58972652  0.88036907     1.05900
O728        O  0.05583723  0.35575049  0.87008010    -0.93700
O729        O  0.96941593  0.37424758  0.85954337    -0.89400
O730        O  0.93825483  0.40422212  0.90925609    -0.82600
C731        C  0.94430312  0.40043149  0.86591473     1.12600
O732        O  0.95521280  0.51680107  0.92933411    -0.95600
Zr733      Zr  0.95008690  0.58718969  0.94690786     1.88900
O734        O  0.88374778  0.34958732  0.94967108    -0.72300
O735        O  0.96260132  0.63347222  0.79807061    -0.51600
O736        O  0.90761146  0.56982898  0.84863490    -0.96200
O737        O  0.91724690  0.54426381  0.99300968    -0.53500
O738        O  0.87476710  0.61220233  0.91575406    -0.72800
C739        C  0.85696901  0.64570012  0.91432186     0.99500
O740        O  0.95280198  0.44206888  0.99518562    -0.61600
O741        O  0.08817681  0.34412775  0.21674636    -0.56400
O742        O  0.94939003  0.39280182  0.07227460    -0.93100
O743        O  0.99961833  0.36448743  0.15221603    -0.91500
O744        O  0.15000772  0.39839758  0.15030003    -0.91900
O745        O  0.10091756  0.44498321  0.06513426    -0.90700
C746        C  0.96738285  0.38831927  0.12494719     1.18400
H747        H  0.12353114  0.63540509  0.11085262     0.34300
H748        H  0.02854076  0.40027198  0.95839572     0.45200
H749        H  0.93389953  0.63357232  0.02582338     0.38700
H750        H  0.01036474  0.57422904  0.89962046     0.35200
H751        H  0.15804878  0.42238008  0.02294416     0.27000
H752        H  0.97683597  0.64134294  0.77404338     0.32900
H753        H  0.87813645  0.55784189  0.84396903     0.38800
H754        H  0.17846955  0.40886665  0.15015968     0.33300
H755        H  0.08464737  0.32680629  0.24416038     0.32100
H756        H  0.99851331  0.58933763  0.16351729     0.33800
H757        H  0.88529976  0.53860882  0.96484791     0.32800
H758        H  0.06933699  0.44998967  0.05886923     0.36800
H759        H  0.92216262  0.44480198  0.99333604     0.29500
H760        H  0.11726607  0.51509848  0.99594417     0.33800
H761        H  0.92338937  0.50578342  0.91127448     0.36600
H762        H  0.11961583  0.33972125  0.22209376     0.29200
H763        H  0.97467218  0.45266088  0.03224927     0.42100
H764        H  0.08808761  0.34790095  0.89048806     0.32100
H765        H  0.13836055  0.38772075  0.97910300     0.39800
H766        H  0.91436814  0.56158509  0.02075220     0.31600
H767        H  0.96517882  0.60424443  0.80073350     0.31700
H768        H  0.06402914  0.51266660  0.95909983     0.31900
C769        C  0.23876849  0.63516285  0.08275413    -0.15500
C770        C  0.27106886  0.66216346  0.11423176    -0.30700
H771        H  0.24886185  0.60656484  0.07410549     0.13500
H772        H  0.26078776  0.68954118  0.12610251     0.14100
C773        C  0.78073168  0.67635512  0.87753825    -0.15500
C774        C  0.80673122  0.64444486  0.88796413    -0.30700
H775        H  0.80006118  0.37495692  0.90388603     0.13500
H776        H  0.79028030  0.61509049  0.87646889     0.14100
C777        C  0.14663905  0.55339716  0.86805322    -0.15500
C778        C  0.10670023  0.57201872  0.84549268    -0.30700
H779        H  0.16537583  0.55197580  0.91294039     0.13500
H780        H  0.08929389  0.57653309  0.80108814     0.14100
C781        C  0.29391264  0.53056673  0.86607125    -0.15500
C782        C  0.31983535  0.50150402  0.86287367    -0.30700
H783        H  0.30995065  0.55466212  0.89606124     0.13500
H784        H  0.30333114  0.47578788  0.83626485     0.14100
C785        C  0.64173524  0.41415554  0.89296699    -0.15500
C786        C  0.63691514  0.37489442  0.88283836    -0.30700
H787        H  0.66212408  0.43266570  0.87913082     0.13500
H788        H  0.61284022  0.35740026  0.89195886     0.14100
C789        C  0.43961403  0.57159093  0.13383171    -0.15500
C790        C  0.40391850  0.59541546  0.10826131    -0.30700
H791        H  0.45548181  0.56885345  0.17859167     0.13500
H792        H  0.38622688  0.59565190  0.06325611     0.14100
C793        C  0.78225264  0.49798920  0.14687532    -0.15500
C794        C  0.75030426  0.46944325  0.11945179    -0.30700
H795        H  0.77172242  0.52606518  0.15656249     0.13500
H796        H  0.76068895  0.44043652  0.11263403     0.14100
C797        C  0.95050565  0.41281643  0.15675285    -0.15500
C798        C  0.91260398  0.43421661  0.13154516    -0.30700
H799        H  0.96960174  0.41328758  0.20165492     0.13500
H800        H  0.89192837  0.43139642  0.08694000     0.14100
C801        C  0.42611830  0.64264296  0.81924674    -0.15500
C802        C  0.46141134  0.61956680  0.82755317    -0.30700
H803        H  0.40795443  0.63762666  0.84383372     0.13500
H804        H  0.47786935  0.62243185  0.80076584     0.14100
C805        C  0.26007232  0.66914501  0.66632887    -0.15500
C806        C  0.28651288  0.70159498  0.67120841    -0.30700
H807        H  0.25635288  0.38021588  0.60140981     0.13500
H808        H  0.27106409  0.72821955  0.64862970     0.14100
C809        C  0.11306797  0.45362821  0.69331582    -0.15500
C810        C  0.15014142  0.47759093  0.70638270    -0.30700
H811        H  0.09687325  0.45329192  0.72050807     0.13500
H812        H  0.16839162  0.47541615  0.68162547     0.14100
C813        C  0.93588482  0.53851256  0.32833188    -0.15500
C814        C  0.94354600  0.53324551  0.28413760    -0.30700
H815        H  0.90650323  0.52330145  0.32912811     0.13500
H816        H  0.97448683  0.54568766  0.28419281     0.14100
C817        C  0.79569957  0.66155606  0.39191773    -0.15500
C818        C  0.82551311  0.63372727  0.42166421    -0.30700
H819        H  0.80885557  0.68952222  0.38399471     0.13500
H820        H  0.79901942  0.27104911  0.40637121     0.14100
C821        C  0.62578633  0.36298781  0.19846827    -0.15500
C822        C  0.61843943  0.35757465  0.24301645    -0.30700
H823        H  0.65375862  0.34770236  0.19637146     0.13500
H824        H  0.58915699  0.37054637  0.24475351     0.14100
C825        C  0.14092075  0.53199747  0.18551472    -0.15500
C826        C  0.13079978  0.52382122  0.22737179    -0.30700
H827        H  0.17145322  0.52032763  0.18548792     0.13500
H828        H  0.09842600  0.53315758  0.22476359     0.14100
C829        C  0.15097713  0.44083039  0.38911878    -0.15500
C830        C  0.11378952  0.41654683  0.36524389    -0.30700
H831        H  0.16921542  0.44344423  0.43401268     0.13500
H832        H  0.09775619  0.41140010  0.32068824     0.14100
C833        C  0.31733001  0.46601995  0.40431285    -0.15500
C834        C  0.28819166  0.49352752  0.37299228    -0.30700
H835        H  0.30424106  0.43780830  0.41155685     0.13500
H836        H  0.30150906  0.52022030  0.36209057     0.14100
C837        C  0.64642857  0.59634775  0.70602102    -0.15500
C838        C  0.63501916  0.60374922  0.74687468    -0.30700
H839        H  0.67400444  0.61362155  0.70380913     0.13500
H840        H  0.60498414  0.58888733  0.74637986     0.14100
C841        C  0.42427189  0.36782355  0.30188345    -0.15500
C842        C  0.43433935  0.36082451  0.25992129    -0.30700
H843        H  0.39416481  0.35326782  0.30164293     0.13500
H844        H  0.46192500  0.69907221  0.26846497     0.14100
C845        C  0.44953906  0.38994039  0.63802511    -0.15500
C846        C  0.40921917  0.36972321  0.61399063    -0.30700
H847        H  0.46850825  0.39146469  0.68292787     0.13500
H848        H  0.38847191  0.37105014  0.56937033     0.14100
C849        C  0.61873014  0.57757885  0.37120298    -0.15500
C850        C  0.65780391  0.59933055  0.39777152    -0.30700
H851        H  0.60073241  0.57694832  0.32622279     0.13500
H852        H  0.67737984  0.59737864  0.44250761     0.14100
C853        C  0.77821824  0.47139719  0.63292874    -0.15500
C854        C  0.74977354  0.50042102  0.60538055    -0.30700
H855        H  0.76425007  0.44332593  0.63932993     0.13500
H856        H  0.76341809  0.52958906  0.60240907     0.14100
C857        C  0.93171067  0.43541038  0.77992478    -0.15500
C858        C  0.91937305  0.42769311  0.82009461    -0.30700
H859        H  0.96330755  0.42387825  0.78277259     0.13500
H860        H  0.88991972  0.44206795  0.81957577     0.14100
C861        C  0.91843896  0.53170472  0.63222461    -0.15500
C862        C  0.95467578  0.55658751  0.65957215    -0.30700
H863        H  0.90118766  0.53157553  0.58718947     0.13500
H864        H  0.97003029  0.55920348  0.70445166     0.14100
C865        C  0.88520751  0.85119762  0.65083243     0.04000
C866        C  0.91287912  0.82901129  0.69736468    -0.12100
C867        C  0.89292473  0.80180237  0.71987360     0.01500
C868        C  0.84492899  0.79763649  0.69595177    -0.10600
C869        C  0.81708316  0.82022088  0.65023499     0.04000
C870        C  0.83755671  0.84624838  0.62702320    -0.10000
H871        H  0.94982389  0.83180359  0.71471093     0.09600
H872        H  0.82894880  0.77610531  0.71191791     0.07200
H873        H  0.81662836  0.86229393  0.58983318     0.07000
Zr874      Zr  0.46153756  0.76181088  0.47892905     2.17500
O875        O  0.46046313  0.69032131  0.49101436    -0.50400
O876        O  0.37993786  0.77105947  0.43733806    -0.73600
O877        O  0.43868806  0.74755616  0.55085004    -0.80400
O878        O  0.47088912  0.75086375  0.34383347    -0.82100
O879        O  0.47775523  0.78916319  0.62497559    -0.77800
O880        O  0.43526851  0.72473307  0.39228173    -0.89400
O881        O  0.36895281  0.83634648  0.41596510    -0.75400
O882        O  0.45420743  0.82378953  0.51585117    -0.84900
O883        O  0.45161751  0.80888698  0.40925617    -0.84500
O884        O  0.53044918  0.77172477  0.56391928    -0.71300
O885        O  0.52838025  0.75831283  0.46468324    -0.83400
Zr886      Zr  0.58114718  0.87937202  0.51608248     2.26400
Zr887      Zr  0.52389178  0.83539339  0.59929562     2.06300
Zr888      Zr  0.51911160  0.80719851  0.39633416     2.10000
Zr889      Zr  0.44391910  0.87038465  0.44595049     1.78800
O890        O  0.56529455  0.76526459  0.36942767    -0.92200
O891        O  0.40558269  0.90837732  0.48839042    -0.40100
O892        O  0.51136635  0.86990944  0.43196876    -0.76700
O893        O  0.51374443  0.88345497  0.52980848    -0.95400
O894        O  0.59070345  0.83247895  0.58559881    -0.88700
O895        O  0.58818599  0.81705647  0.47983332    -0.91500
C896        C  0.35415135  0.80072281  0.41740830     1.02200
C897        C  0.44330044  0.72587236  0.35008624     1.15200
C898        C  0.44894257  0.76035567  0.59988882     1.05900
O899        O  0.47951006  0.88083832  0.62430138    -0.93700
O900        O  0.57784580  0.88915482  0.65439684    -0.89400
O901        O  0.61295001  0.91390301  0.60466074    -0.82600
C902        C  0.60672500  0.91282153  0.64808328     1.12600
O903        O  0.59319978  0.69937130  0.56591441    -0.95600
Zr904      Zr  0.59703701  0.77016666  0.54929823     1.88900
O905        O  0.66270715  0.86774809  0.55731094    -0.72300
O906        O  0.56979212  0.81229413  0.69321306    -0.51600
O907        O  0.63560704  0.75799713  0.64853821    -0.96200
O908        O  0.63564354  0.72955748  0.50972886    -0.53500
O909        O  0.67180584  0.80244447  0.57969348    -0.72800
C910        C  0.68748991  0.83746322  0.57776779     0.99500
O911        O  0.57833997  0.95099358  0.50348385    -0.61600
O912        O  0.47390677  0.83206004  0.30329992    -0.56400
O913        O  0.60411603  0.89616425  0.44502534    -0.93100
O914        O  0.56247137  0.85606929  0.37015277    -0.91500
O915        O  0.40208122  0.88375692  0.34727103    -0.91900
O916        O  0.44469539  0.94118514  0.42800832    -0.90700
C917        C  0.59169834  0.88467153  0.39487685     1.18400
H918        H  0.42448212  0.80273076  0.37502633     0.34300
H919        H  0.51267492  0.90962172  0.54382104     0.45200
H920        H  0.61405922  0.81707744  0.47193037     0.38700
H921        H  0.53244443  0.75119892  0.58973074     0.35200
H922        H  0.37739900  0.91753416  0.45682167     0.27000
H923        H  0.55230389  0.81899668  0.71363523     0.32900
H924        H  0.66768013  0.75284197  0.65705621     0.38800
H925        H  0.37096891  0.89043194  0.34125727     0.33300
H926        H  0.48005486  0.81401306  0.27871935     0.32100
H927        H  0.55176942  0.76751370  0.32865079     0.33800
H928        H  0.65349922  0.74864038  0.49882007     0.32800
H929        H  0.46978994  0.94526549  0.41758935     0.36800
H930        H  0.56901961  0.95524225  0.46369665     0.29500
H931        H  0.43002436  0.68368058  0.48862726     0.33800
H932        H  0.62515559  0.69181652  0.58963347     0.36600
H933        H  0.44169000  0.82586823  0.29479486     0.29200
H934        H  0.55116278  0.95845393  0.50783028     0.42100
H935        H  0.44760683  0.87022653  0.60449978     0.32100
H936        H  0.39446840  0.88825684  0.50644231     0.39800
H937        H  0.61084786  0.71935910  0.47415659     0.31600
H938        H  0.56777869  0.78291487  0.69015466     0.31700
H939        H  0.48238890  0.68615736  0.53028549     0.31900
C940        C  0.15458548  0.77580595  0.34074030     0.04000
C941        C  0.12659155  0.79765768  0.29397057    -0.12100
C942        C  0.14577877  0.82595072  0.27197937     0.01500
C943        C  0.19348243  0.83252426  0.29731786    -0.10600
C944        C  0.22225500  0.81063517  0.34333558     0.04000
C945        C  0.20253749  0.78225510  0.36505772    -0.10000
H946        H  0.08972896  0.79304859  0.27509817     0.09600
H947        H  0.20838743  0.85513951  0.28143772     0.07200
H948        H  0.22427194  0.76560110  0.40112394     0.07000
C949        C  0.67109655  0.95265192  0.35849424     0.04000
C950        C  0.64278610  0.97497311  0.31233827    -0.12100
C951        C  0.66177208  0.00107550  0.28736911     0.01500
C952        C  0.70973541  0.00486812  0.30914777    -0.10600
C953        C  0.73877318  0.98315003  0.35549242     0.04000
C954        C  0.71895612  0.95721905  0.38010284    -0.10000
H955        H  0.60596203  0.97296946  0.29670788     0.09600
H956        H  0.73170792  0.69950039  0.30481447     0.07200
H957        H  0.74049294  0.94135379  0.41714551     0.07000
Zr958      Zr  0.97619424  0.92748985  0.50047636     2.17500
O959        O  0.96561664  0.85591400  0.50470834    -0.50400
O960        O  0.89522530  0.94048324  0.45369559    -0.73600
O961        O  0.95301348  0.91173999  0.57147903    -0.80400
O962        O  0.99975337  0.91123395  0.37521515    -0.82100
O963        O  0.98903309  0.95398826  0.64543979    -0.77800
O964        O  0.95672050  0.88856412  0.41636867    -0.89400
O965        O  0.89250013  0.67533549  0.44907669    -0.75400
O966        O  0.96838140  0.99010703  0.53590602    -0.84900
O967        O  0.97226408  0.97441027  0.43321801    -0.84500
O968        O  0.04226404  0.93625026  0.58886753    -0.71300
O969        O  0.04589775  0.92141508  0.49344541    -0.83400
Zr970      Zr  0.10597531  0.71125033  0.55998992     2.26400
Zr971      Zr  0.03563171  0.00077942  0.62248927     2.06300
Zr972      Zr  0.04292976  0.97027089  0.42763768     2.10000
Zr973      Zr  0.96903227  0.70554364  0.48299186     1.78800
O974        O  0.10041770  0.93614240  0.41146555    -0.92200
O975        O  0.93465233  0.74537101  0.52862591    -0.40100
O976        O  0.03806313  0.70500913  0.47276377    -0.76700
O977        O  0.03663038  0.71432460  0.56941639    -0.95400
O978        O  0.10534105  0.99512791  0.61600907    -0.88700
O979        O  0.10991441  0.97920603  0.51451137    -0.91500
C980        C  0.87081895  0.97099188  0.43396760     1.02200
C981        C  0.96950831  0.88742501  0.37798913     1.15200
C982        C  0.96194031  0.92436464  0.62020565     1.05900
O983        O  0.99413245  0.69794633  0.66352774    -0.93700
O984        O  0.08514427  0.72094328  0.68673327    -0.89400
O985        O  0.12556699  0.74865670  0.64513855    -0.82600
C986        C  0.11299425  0.74732480  0.68372040     1.12600
O987        O  0.10844557  0.86202703  0.60063606    -0.95600
Zr988      Zr  0.11162528  0.93224301  0.58110235     1.88900
O989        O  0.18727046  0.69832387  0.61413646    -0.72300
O990        O  0.07925327  0.98183161  0.71892190    -0.51600
O991        O  0.14395733  0.91637860  0.67926830    -0.96200
O992        O  0.14947454  0.89254383  0.53966975    -0.53500
O993        O  0.18766380  0.96187951  0.62327058    -0.72800
C994        C  0.20630461  0.99616834  0.62568110     0.99500
O995        O  0.10853684  0.78263011  0.54664768    -0.61600
O996        O  0.00113325  0.67132398  0.34030726    -0.56400
O997        O  0.13489247  0.72805823  0.49447125    -0.93100
O998        O  0.09309313  0.69262603  0.41452445    -0.91500
O999        O  0.92814658  0.72165257  0.38523711    -0.91900
O1000       O  0.97325487  0.77598646  0.46518277    -0.90700
C1001       C  0.12382330  0.71919288  0.44379984     1.18400
H1002       H  0.94642655  0.96856725  0.39780085     0.34300
H1003       H  0.03496873  0.73985970  0.58452795     0.45200
H1004       H  0.13734166  0.97872600  0.50966061     0.38700
H1005       H  0.04252186  0.91584889  0.61401704     0.35200
H1006       H  0.90500542  0.75328194  0.49840091     0.27000
H1007       H  0.05845678  0.98538282  0.73591597     0.32900
H1008       H  0.17529664  0.90748588  0.68963119     0.39600
H1009       H  0.89955611  0.73371136  0.38096616     0.33300
H1010       H  0.01015938  0.65580681  0.31594695     0.32100
H1011       H  0.08874042  0.93611555  0.37074884     0.33800
H1012       H  0.16929370  0.91162196  0.53195375     0.32800
H1013       H  0.00446221  0.78069986  0.46893802     0.36800
H1014       H  0.09405664  0.78629016  0.50605793     0.29500
H1015       H  0.93604171  0.85179805  0.50580001     0.33800
H1016       H  0.14046804  0.85331949  0.61695007     0.36600
H1017       H  0.96887493  0.66291127  0.32876716     0.29200
H1018       H  0.08558662  0.79264724  0.55744301     0.42100
H1019       H  0.96366333  0.68439346  0.64428054     0.32100
H1020       H  0.92619645  0.72609783  0.55027415     0.39800
H1021       H  0.12488678  0.88460160  0.50266514     0.31600
H1022       H  0.08228819  0.95272194  0.71763955     0.31700
H1023       H  0.98914601  0.84843954  0.54191521     0.31900
C1024       C  0.41181304  0.71719942  0.70609422     0.04000
C1025       C  0.43047646  0.02514832  0.75625913    -0.12100
C1026       C  0.40321121  0.00158575  0.77333405     0.01500
C1027       C  0.35536793  0.00425530  0.74505543    -0.10600
C1028       C  0.33727881  0.70009382  0.70161195     0.04000
C1029       C  0.36401593  0.72126294  0.68174332    -0.10000
H1030       H  0.46742734  0.02365094  0.77772268     0.09600
H1031       H  0.33458638  0.98650455  0.75889645     0.07200
H1032       H  0.34732780  0.74026295  0.64634338     0.07000
C1033       C  0.90586625  0.78518593  0.15942028     0.04000
C1034       C  0.93766233  0.80303881  0.21018910    -0.12100
C1035       C  0.92274566  0.82885364  0.23947446     0.01500
C1036       C  0.87594032  0.83696378  0.21711183    -0.10600
C1037       C  0.84391447  0.81936098  0.16729527     0.04000
C1038       C  0.85925825  0.79383448  0.13837182    -0.10000
H1039       H  0.97382894  0.79771435  0.22616643     0.09600
H1040       H  0.86423646  0.85775520  0.23816654     0.07200
H1041       H  0.83514540  0.78116432  0.09866119     0.07000
Zr1042     Zr  0.60357155  0.76758827  0.03633641     2.17500
O1043       O  0.60523124  0.69548890  0.02934816    -0.50400
O1044       O  0.68470171  0.78081652  0.07630235    -0.73600
O1045       O  0.62257111  0.74994629  0.96248516    -0.80400
O1046       O  0.59023924  0.75594109  0.16803491    -0.82100
O1047       O  0.59858956  0.79895720  0.89846272    -0.77800
O1048       O  0.62915824  0.73290103  0.12284376    -0.89400
O1049       O  0.69859363  0.84639092  0.09991824    -0.75400
O1050       O  0.61695231  0.83066165  0.00599041    -0.84900
O1051       O  0.61203785  0.81435838  0.10676314    -0.84500
O1052       O  0.53845898  0.77703031  0.94901129    -0.71300
O1053       O  0.53423257  0.76137807  0.04515063    -0.83400
Zr1054     Zr  0.48714516  0.88306004  0.99577848     2.26400
Zr1055     Zr  0.55075793  0.84183529  0.92059949     2.06300
Zr1056     Zr  0.54196728  0.81002789  0.11387724     2.10000
Zr1057     Zr  0.62479314  0.87691554  0.07601261     1.78800
O1058       O  0.49085462  0.76636880  0.13342692    -0.92200
O1059       O  0.66248281  0.92221999  0.03842479    -0.40100
O1060       O  0.55398562  0.87380000  0.08277152    -0.76700
O1061       O  0.55839101  0.88958570  0.99017835    -0.95400
O1062       O  0.48054180  0.83630651  0.92655757    -0.88700
O1063       O  0.47602165  0.81960332  0.02738137    -0.91500
C1064       C  0.71161257  0.81121226  0.09616648     1.02200
C1065       C  0.61976142  0.73339482  0.16391352     1.15200
C1066       C  0.61884187  0.76644595  0.91797888     1.05900
O1067       O  0.59982297  0.88398278  0.89551689    -0.93700
O1068       O  0.50792270  0.89861023  0.86995831    -0.89400
O1069       O  0.46797545  0.92271175  0.91312920    -0.82600
C1070       C  0.48001634  0.92288991  0.87401091     1.12600
O1071       O  0.47289919  0.70130191  0.94784764    -0.95600
Zr1072     Zr  0.46967316  0.77293123  0.95804175     1.88900
O1073       O  0.40513958  0.86911226  0.93910943    -0.72300
O1074       O  0.50454959  0.81715235  0.82609049    -0.51600
O1075       O  0.43860662  0.75382812  0.86050988    -0.96200
O1076       O  0.41971110  0.73797315  0.98935928    -0.53500
O1077       O  0.39745330  0.80422116  0.91199792    -0.72800
C1078       C  0.38136398  0.83834146  0.91180950     0.99500
O1079       O  0.48806655  0.95387884  0.01544926    -0.61600
O1080       O  0.58266804  0.83501090  0.20892902    -0.56400
O1081       O  0.45922297  0.89598453  0.06344987    -0.93100
O1082       O  0.49715571  0.85661573  0.13770893    -0.91500
O1083       O  0.66765575  0.88447571  0.17629545    -0.91900
O1084       O  0.62760588  0.94518479  0.10772739    -0.90700
C1085       C  0.46910035  0.88429810  0.11263220     1.18400
H1086       H  0.63802743  0.80884207  0.14167320     0.34300
H1087       H  0.56175798  0.91602312  0.97853951     0.45200
H1088       H  0.44858301  0.81866501  0.03213533     0.38700
H1089       H  0.53639612  0.75698055  0.92235940     0.35200
H1090       H  0.69032571  0.93224586  0.07112616     0.27000
H1091       H  0.52058959  0.82748351  0.80514846     0.32900
H1092       H  0.40664258  0.74468723  0.84946294     0.38800
H1093       H  0.69727637  0.89721168  0.18275841     0.33300
H1094       H  0.57708990  0.81446442  0.23146271     0.32100
H1095       H  0.49912455  0.77188640  0.17281238     0.33800
H1096       H  0.39964893  0.75836142  0.99214361     0.32800
H1097       H  0.59606936  0.95444366  0.08608029     0.36800
H1098       H  0.50034332  0.95664959  0.05613295     0.29500
H1099       H  0.63491190  0.69004398  0.02987813     0.33800
H1100       H  0.44080279  0.69174374  0.92558569     0.36600
H1101       H  0.61549230  0.83312392  0.21860480     0.29200
H1102       H  0.51298690  0.96523213  0.00826529     0.42100
H1103       H  0.60819799  0.90723628  0.92101813     0.32100
H1104       H  0.67421687  0.90475189  0.01862699     0.39800
H1105       H  0.44010614  0.73115318  0.02823327     0.31600
H1106       H  0.50899208  0.78812660  0.82758399     0.31700
H1107       H  0.58199733  0.68851001  0.99111069     0.31900
C1108       C  0.18329463  0.87480693  0.85285761     0.04000
C1109       C  0.23062385  0.88197844  0.87515669    -0.12100
C1110       C  0.25542525  0.86602138  0.84974853     0.01500
C1111       C  0.23208211  0.84319173  0.80066373    -0.10600
C1112       C  0.18518102  0.83403241  0.77945117     0.04000
C1113       C  0.16061078  0.85069796  0.80505354    -0.10000
H1114       H  0.24841048  0.89918220  0.91331569     0.09600
H1115       H  0.25063239  0.83099449  0.78002040     0.07200
H1116       H  0.12425235  0.84420903  0.78872094     0.07000
C1117       C  0.65849882  0.68631514  0.85212275     0.04000
C1118       C  0.70543828  0.69427799  0.87066705    -0.12100
C1119       C  0.73021888  0.67138766  0.85133615     0.01500
C1120       C  0.70528514  0.98423240  0.79819885    -0.10600
C1121       C  0.65788955  0.97874138  0.78110688     0.04000
C1122       C  0.63799657  0.99984260  0.80883008    -0.10000
H1123       H  0.72330162  0.71649850  0.90292342     0.09600
H1124       H  0.72150401  0.96740217  0.77829102     0.07200
H1125       H  0.60193957  0.99507157  0.79722730     0.07000
C1126       C  0.39159259  0.95248326  0.14707553     0.04000
C1127       C  0.34427449  0.95935633  0.12178882    -0.12100
C1128       C  0.32515134  0.98416679  0.14739091     0.01500
C1129       C  0.35441475  0.00316966  0.19784576    -0.10600
C1130       C  0.40188286  0.99720317  0.22334307     0.04000
C1131       C  0.42015227  0.97186508  0.19769981    -0.10000
H1132       H  0.32257008  0.94566305  0.08182170     0.09600
H1133       H  0.33679048  0.69426971  0.20710584     0.07200
H1134       H  0.45682014  0.96818532  0.21652886     0.07000
Zr1135     Zr  0.08560239  0.92270517  0.01146136     2.17500
O1136       O  0.08696369  0.85102362  0.99989065    -0.50400
O1137       O  0.16707164  0.93841965  0.05237309    -0.73600
O1138       O  0.10646563  0.90942661  0.93761197    -0.80400
O1139       O  0.07482639  0.91145768  0.14568188    -0.82100
O1140       O  0.06430624  0.94750706  0.86326380    -0.77800
O1141       O  0.11118032  0.88730298  0.09790256    -0.89400
O1142       O  0.17408416  0.67443956  0.06657810    -0.75400
O1143       O  0.09015274  0.98420238  0.97104746    -0.84900
O1144       O  0.09583833  0.97213953  0.07932531    -0.84500
O1145       O  0.01545017  0.92645437  0.92778544    -0.71300
O1146       O  0.02034475  0.91636128  0.02910993    -0.83400
Zr1147     Zr  0.96086310  0.69851642  0.97714873     2.26400
Zr1148     Zr  0.01873327  0.98984840  0.88959358     2.06300
Zr1149     Zr  0.02970358  0.96764228  0.09539701     2.10000
Zr1150     Zr  0.09823471  0.70149620  0.03950301     1.78800
O1151       O  0.98269738  0.92895194  0.12730754    -0.92200
O1152       O  0.13009555  0.74282191  0.99091119    -0.40100
O1153       O  0.03343036  0.69490584  0.05811233    -0.76700
O1154       O  0.02586100  0.70858988  0.95892984    -0.95400
O1155       O  0.95331557  0.98329389  0.90548904    -0.88700
O1156       O  0.95881999  0.97082192  0.01293262    -0.91500
C1157       C  0.19251103  0.97008731  0.06931964     1.02200
C1158       C  0.10230336  0.88768142  0.13947850     1.15200
C1159       C  0.09441044  0.92146733  0.88799723     1.05900
O1160       O  0.05722411  0.70342571  0.85643407    -0.93700
O1161       O  0.96604056  0.71283470  0.83961006    -0.89400
O1162       O  0.93004963  0.73302161  0.88960904    -0.82600
C1163       C  0.93752547  0.73437185  0.84707971     1.12600
O1164       O  0.95781099  0.85152801  0.92868114    -0.95600
Zr1165     Zr  0.95060741  0.92137782  0.94541419     1.88900
O1166       O  0.87962886  0.67865967  0.93360638    -0.72300
O1167       O  0.96514310  0.96014139  0.80069898    -0.51600
O1168       O  0.91104987  0.90514445  0.84663044    -0.96200
O1169       O  0.91364291  0.87933571  0.98755804    -0.53500
O1170       O  0.87492035  0.94676810  0.90902918    -0.72800
C1171       C  0.85775332  0.98097780  0.90428920     0.99500
O1172       O  0.95341234  0.76950582  0.98878645    -0.61600
O1173       O  0.07952481  0.65260874  0.19238419    -0.56400
O1174       O  0.94732637  0.71703907  0.05539565    -0.93100
O1175       O  0.99639647  0.68258372  0.12976619    -0.91500
O1176       O  0.14057890  0.72049714  0.13707717    -0.91900
O1177       O  0.09603922  0.77214097  0.05711655    -0.90700
C1178       C  0.96636181  0.70938690  0.10739253     1.18400
H1179       H  0.12346190  0.96812052  0.11314653     0.34300
H1180       H  0.02536668  0.73486465  0.94446302     0.45200
H1181       H  0.93324356  0.96957875  0.02150091     0.38700
H1182       H  0.01330336  0.90538666  0.90245859     0.35200
H1183       H  0.16012628  0.75270439  0.02010892     0.27000
H1184       H  0.97618860  0.96983697  0.77426472     0.32900
H1185       H  0.88012606  0.89519428  0.83941295     0.38800
H1186       H  0.11745102  0.71959678  0.15110411     0.33300
H1187       H  0.07355310  0.63255068  0.21520936     0.32100
H1188       H  0.99314698  0.93801483  0.16608154     0.33800
H1189       H  0.89647144  0.89775800  0.99916115     0.32800
H1190       H  0.06412719  0.77627954  0.05020412     0.36800
H1191       H  0.97470561  0.77643280  0.02780935     0.29500
H1192       H  0.11704073  0.84608439  0.00121899     0.33800
H1193       H  0.92608081  0.84056459  0.90841089     0.36600
H1194       H  0.11129372  0.64815163  0.19894665     0.29200
H1195       H  0.96836384  0.78231447  0.96814181     0.42100
H1196       H  0.05685341  0.72992145  0.87211824     0.32100
H1197       H  0.13781498  0.72385076  0.96868875     0.39800
H1198       H  0.93902268  0.87068000  0.02271517     0.31600
H1199       H  0.97149794  0.93143192  0.80405391     0.31700
H1200       H  0.06438983  0.84522356  0.96095657     0.31900
C1201       C  0.24253892  0.96458090  0.09087390    -0.15500
C1202       C  0.27501523  0.99181348  0.12209815    -0.30700
H1203       H  0.25290267  0.93574962  0.08337844     0.13500
H1204       H  0.26450956  0.01945917  0.13299071     0.14100
C1205       C  0.78274219  0.01350812  0.86675033    -0.15500
C1206       C  0.80740320  0.98112501  0.87367528    -0.30700
H1207       H  0.79650328  0.70570177  0.89162101     0.13500
H1208       H  0.78976084  0.95258763  0.85812352     0.14100
C1209       C  0.15906088  0.89029256  0.88294523    -0.15500
C1210       C  0.11685328  0.90456177  0.85684828    -0.30700
H1211       H  0.17763190  0.89225333  0.92789307     0.13500
H1212       H  0.09975788  0.90620753  0.81192730     0.14100
C1213       C  0.30610609  0.87025816  0.87835240    -0.15500
C1214       C  0.33173450  0.84031422  0.87724213    -0.30700
H1215       H  0.32218514  0.89563880  0.90590904     0.13500
H1216       H  0.31511119  0.81363371  0.85307259     0.14100
C1217       C  0.63948401  0.74665339  0.88711922    -0.15500
C1218       C  0.63383081  0.70734980  0.87750592    -0.30700
H1219       H  0.65898733  0.76453403  0.87136032     0.13500
H1220       H  0.61065473  0.69024879  0.88859471     0.14100
C1221       C  0.44787961  0.90507435  0.14329806    -0.15500
C1222       C  0.41087010  0.92771599  0.11745930    -0.30700
H1223       H  0.46342011  0.90215790  0.18802221     0.13500
H1224       H  0.39355867  0.92796316  0.07245864     0.14100
C1225       C  0.79485216  0.82926969  0.14610023    -0.15500
C1226       C  0.76058703  0.80368860  0.11496233    -0.30700
H1227       H  0.78679797  0.85711100  0.15957101     0.13500
H1228       H  0.76859447  0.77462812  0.10488443     0.14100
C1229       C  0.95372283  0.73360506  0.14444006    -0.15500
C1230       C  0.91992364  0.76005921  0.12449217    -0.30700
H1231       H  0.97248272  0.72954116  0.18887189     0.13500
H1232       H  0.89973305  0.76222811  0.07988040     0.14100
C1233       C  0.42366147  0.97356780  0.82016378    -0.15500
C1234       C  0.46112050  0.95293556  0.83004492    -0.30700
H1235       H  0.40541272  0.96750406  0.84438980     0.13500
H1236       H  0.47716264  0.95645690  0.80287801     0.14100
C1237       C  0.25664006  0.99804093  0.65905999    -0.15500
C1238       C  0.28370400  0.03035091  0.66571187    -0.30700
H1239       H  0.27616408  0.64170350  0.68535343     0.13500
H1240       H  0.26878647  0.05725760  0.64355585     0.14100
C1241       C  0.13112585  0.77836294  0.72779912    -0.15500
C1242       C  0.16364397  0.80543625  0.73218874    -0.30700
H1243       H  0.11856321  0.77788002  0.75864359     0.13500
H1244       H  0.17811990  0.80411016  0.70323968     0.14100
C1245       C  0.94489638  0.85797217  0.33256750    -0.15500
C1246       C  0.95581289  0.85025303  0.29111128    -0.30700
H1247       H  0.91415195  0.84390963  0.33119272     0.13500
H1248       H  0.98790862  0.86177725  0.29343525     0.14100
C1249       C  0.78943949  0.99051966  0.37928610    -0.15500
C1250       C  0.82045592  0.96387613  0.40992964    -0.30700
H1251       H  0.80154988  0.01843103  0.36974502     0.13500
H1252       H  0.81289920  0.60460706  0.42654197     0.14100
C1253       C  0.64729212  0.70726665  0.21015745    -0.15500
C1254       C  0.63773252  0.69888579  0.25228522    -0.30700
H1255       H  0.67711186  0.69448207  0.20949740     0.13500
H1256       H  0.60615292  0.70893571  0.25125296     0.14100
C1257       C  0.12750215  0.85957648  0.18397753    -0.15500
C1258       C  0.11581872  0.85017710  0.22421657    -0.30700
H1259       H  0.15750384  0.84653952  0.18412074     0.13500
H1260       H  0.08397494  0.86038802  0.22223229     0.14100
C1261       C  0.13259055  0.74716779  0.36396124    -0.15500
C1262       C  0.14867107  0.74228588  0.41881906    -0.30700
H1263       H  0.09998308  0.73306821  0.33582786     0.13500
H1264       H  0.17907829  0.75921758  0.44711846     0.14100
C1265       C  0.30418981  0.79229523  0.39487742    -0.15500
C1266       C  0.27252695  0.81947930  0.36844585    -0.30700
H1267       H  0.29328224  0.76218686  0.39863986     0.13500
H1268       H  0.28376395  0.84885434  0.36209925     0.14100
C1269       C  0.63603322  0.94090574  0.69331977    -0.15500
C1270       C  0.62870270  0.94947264  0.73702765    -0.30700
H1271       H  0.66377145  0.95632676  0.68905456     0.13500
H1272       H  0.59895584  0.93621585  0.73916131     0.14100
C1273       C  0.41683941  0.69752001  0.30454042    -0.15500
C1274       C  0.42891141  0.68873870  0.26464226    -0.30700
H1275       H  0.38550771  0.68446890  0.30275519     0.13500
H1276       H  0.46707627  0.02850700  0.27930001     0.14100
C1277       C  0.42385069  0.74060272  0.62715769    -0.15500
C1278       C  0.43953540  0.73796006  0.68237929    -0.30700
H1279       H  0.39144022  0.72578384  0.59991309     0.13500
H1280       H  0.47382348  0.74914563  0.71014364     0.14100
C1281       C  0.61166320  0.90652690  0.36300427    -0.15500
C1282       C  0.65163511  0.92757136  0.38837968    -0.30700
H1283       H  0.59330291  0.90522508  0.31806092     0.13500
H1284       H  0.67146749  0.92595724  0.43311017     0.14100
C1285       C  0.76674814  0.81454209  0.62614964    -0.15500
C1286       C  0.73749346  0.84356344  0.60020610    -0.30700
H1287       H  0.75352803  0.78606679  0.63247911     0.13500
H1288       H  0.75041944  0.87285687  0.59644722     0.14100
C1289       C  0.92251128  0.77577284  0.76550197    -0.15500
C1290       C  0.91017940  0.76231140  0.80364355    -0.30700
H1291       H  0.95536755  0.76794063  0.76815310     0.13500
H1292       H  0.87931621  0.77282088  0.80402340     0.14100
C1293       C  0.90520353  0.87663082  0.62271721    -0.15500
C1294       C  0.94071549  0.90217471  0.64993166    -0.30700
H1295       H  0.88919642  0.87482681  0.57772878     0.13500
H1296       H  0.95467550  0.90627755  0.69450881     0.14100
loop_ 
_geom_bond_atom_site_label_1 
_geom_bond_atom_site_label_2 
_geom_bond_distance 
_geom_bond_site_symmetry_2 
_ccdc_geom_bond_type 
C1            C2   1.400       .  A
C1            C6   1.402       .  A
C1          C429   1.468       .  S
C2            C3   1.400       .  A
C2            H7   1.084       .  S
C3            C4   1.407       .  A
C3          C425   1.482       .  S
C4            C5   1.408       .  A
C4            H8   1.082       .  S
C5            C6   1.397       .  A
C5          C421   1.482       .  S
C6            H9   1.084       .  S
Zr10         O11   2.439       .  S
Zr10         O12   2.413       .  S
Zr10         O13   2.414       .  S
Zr10         O16   2.429       .  S
Zr10         O18   2.379       .  S
Zr10         O19   2.376       .  S
Zr10         O20   2.400       .  S
Zr10         O21   2.393       .  S
O11          H67   0.990       .  S
O11          H75   0.991       .  S
O12          C32   1.280       .  A
O13          C34   1.280       .  A
O14         Zr24   2.436       .  S
O14          C33   1.286       .  A
O15         Zr23   2.449       .  S
O15          C34   1.288       .  A
O16          C33   1.284       .  A
O17         Zr25   2.442       .  S
O17          C32   1.285       .  A
O18         Zr23   2.389       .  S
O18         Zr25   2.367       .  S
O19         Zr24   2.392       .  S
O19         Zr25   2.374       .  S
O19          H54   0.966       .  S
O20         Zr23   2.400       .  S
O20         Zr40   2.391       .  S
O20          H57   0.966       .  S
O21         Zr24   2.397       .  S
O21         Zr40   2.396       .  S
Zr22         O47   2.439       .  S
Zr22         O41   2.439       .  S
Zr22         O49   2.446       .  S
Zr22         O37   2.423       .  S
Zr22         O28   2.395       .  S
Zr22         O29   2.412       .  S
Zr22         O30   2.379       .  S
Zr22         O31   2.380       .  S
Zr23         O42   2.438       .  S
Zr23         O35   2.437       .  S
Zr23         O36   2.444       .  S
Zr23         O29   2.402       .  S
Zr23         O30   2.388       .  S
Zr24         O26   2.437       .  S
Zr24         O48   2.439       .  S
Zr24         O50   2.435       .  S
Zr24         O28   2.389       .  S
Zr24         O31   2.393       .  S
Zr25         O51   2.435       .  S
Zr25         O52   2.431       .  S
Zr25         O27   2.435       .  S
Zr25         O28   2.397       .  S
Zr25         O29   2.400       .  S
O26          H63   0.990       .  S
O27          H58   0.990       .  S
O27          H72   0.990       .  S
O29          H55   0.966       .  S
O30         Zr40   2.369       .  S
O31         Zr40   2.385       .  S
O31          H56   0.965       .  S
C32         C401   1.475       .  S
C33         C409   1.478       .  S
C34         C413   1.472       .  S
O35          H71   0.990       .  S
O36          C38   1.288       .  A
O37          C38   1.282       .  A
C38         C405   1.478       .  S
O39         Zr40   2.435       .  S
O39          H68   0.990       .  S
Zr40         O43   2.438       .  S
Zr40         O44   2.440       .  S
Zr40         O45   2.407       .  S
O41          C46   1.286       .  A
O42          H59   0.990       .  S
O42          H74   0.990       .  S
O43          H60   0.990       .  S
O44          H64   0.990       .  S
O44          H73   0.990       .  S
O45          C46   1.278       .  A
C46         C422   1.469       .  S
O47          H66   0.990       .  S
O47          H70   0.990       .  S
O48          H62   0.990       .  S
O48          H69   0.990       .  S
O49          C53   1.288       .  A
O50          C53   1.284       .  A
O51          H61   0.990       .  S
O52          H65   0.990       .  S
C53         C417   1.485       .  S
C76          C77   1.408       .  A
C76          C81   1.402       .  A
C76         C397   1.482       .  S
C77          C78   1.407       .  A
C77          H82   1.084       .  S
C78          C79   1.409       .  A
C78         C394   1.486       .  S
C79          C80   1.399       .  A
C79          H83   1.084       .  S
C80          C81   1.405       .  A
C80         C402   1.486       .  S
C81          H84   1.083       .  S
C85          C86   1.411       .  A
C85          C90   1.400       .  A
C85         C418   1.484       .  S
C86          C87   1.408       .  A
C86          H91   1.083       .  S
C87          C88   1.408       .  A
C87         C822   1.488       .  S
C88          C89   1.400       .  A
C88         H524   1.084       .  S
C89          C90   1.403       .  A
C89         C385   1.482       .  S
C90          H93   1.083       .  S
H92         C952   1.083       .  S
Zr94         O95   2.438       .  S
Zr94         O96   2.420       .  S
Zr94         O97   2.414       .  S
Zr94        O100   2.431       .  S
Zr94        O102   2.382       .  S
Zr94        O103   2.378       .  S
Zr94        O104   2.401   1_655  S
Zr94        O105   2.391   1_655  S
O95         H151   0.990       .  S
O95         H159   0.991       .  S
O96         C116   1.281       .  A
O97         C118   1.282       .  A
O98        Zr108   2.457   1_655  S
O98         C117   1.289       .  A
O99        Zr107   2.433   1_655  S
O99         C118   1.283       .  A
O100        C117   1.285       .  A
O101       Zr109   2.459       .  S
O101        C980   1.289   1_545  A
O102       Zr107   2.387   1_655  S
O102       Zr541   2.370       .  S
O103       Zr108   2.385   1_655  S
O103       Zr541   2.370       .  S
O103        H138   0.966       .  S
O104       Zr107   2.395       .  S
O104       Zr124   2.392       .  S
O104        H141   0.966       .  S
O105       Zr108   2.389       .  S
O105       Zr124   2.398       .  S
Zr106       O131   2.443       .  S
Zr106       O125   2.460       .  S
Zr106       O133   2.423       .  S
Zr106       O121   2.408       .  S
Zr106       O112   2.403       .  S
Zr106       O113   2.413       .  S
Zr106       O978   2.371   1_545  S
Zr106       O979   2.376   1_545  S
Zr107       O126   2.437       .  S
Zr107       O551   2.435   1_455  S
Zr107       O552   2.426       .  S
Zr107       O114   2.387       .  S
Zr107       O545   2.395       .  S
Zr108       O110   2.433       .  S
Zr108       O564   2.438   1_455  S
Zr108       O566   2.426       .  S
Zr108       O115   2.394       .  S
Zr108       O544   2.401       .  S
Zr109       O135   2.436       .  S
Zr109       O136   2.434       .  S
Zr109       O111   2.437       .  S
Zr109       O112   2.405   1_655  S
Zr109       O113   2.415   1_655  S
Zr109       O966   2.369   1_545  S
Zr109       O967   2.370   1_545  S
O110        H147   0.990       .  S
O111        H142   0.990       .  S
O111        H156   0.990       .  S
O112       Zr972   2.390   1_545  S
O113       Zr971   2.395       .  S
O113        H139   0.966       .  S
O114       Zr124   2.379       .  S
O114       Zr538   2.379       .  S
O115       Zr124   2.374       .  S
O115       Zr538   2.387       .  S
O115        H140   0.965       .  S
C116        C386   1.473       .  S
C116        O533   1.284       .  A
C117        C381   1.485       .  S
C118        C430   1.464       .  S
O119       Zr971   2.437   1_655  S
O119        H155   0.990       .  S
O120       Zr971   2.452       .  S
O120        C122   1.289       .  A
O121        C122   1.279       .  A
C122        C377   1.474       .  S
O123       Zr124   2.435       .  S
O123        H152   0.990       .  S
Zr124       O127   2.440       .  S
Zr124       O128   2.438       .  S
Zr124       O129   2.421       .  S
O125        C994   1.290   1_545  A
O126        H143   0.990       .  S
O126        H158   0.990       .  S
O127        H144   0.990       .  S
O128        H148   0.990       .  S
O128        H157   0.990       .  S
O129        C130   1.283       .  A
C130        C373   1.483       .  S
C130        O557   1.287       .  A
O131        H150   0.990       .  S
O131        H154   0.990       .  S
O132       Zr972   2.439   1_655  S
O132        H146   0.990   1_655  S
O132        H153   0.990       .  S
O133        C137   1.284       .  A
O134       Zr972   2.445   1_545  S
O134        C137   1.286       .  A
O135        H145   0.990       .  S
O136        H149   0.990       .  S
C137        C398   1.482       .  S
C160        C165   1.407       .  A
C160       C1025   1.402       .  A
C160        C414   1.482       .  S
C161        C162   1.405       .  A
C161        C592   1.409       .  A
C161        H166   1.084       .  S
C162        C163   1.409       .  A
C162        C369   1.493       .  S
C163        C596   1.405       .  A
C163        H167   1.083       .  S
C164        C165   1.401       .  A
C164       C1027   1.411       .  A
C164       C1238   1.492       .  S
C165        H168   1.084       .  S
C169        C170   1.414       .  A
C169        C174   1.411       .  A
C169        C366   1.497       .  S
C170        C171   1.412       .  A
C170        H175   1.083       .  S
C171        C172   1.408       .  A
C171        C382   1.496       .  S
C172        C173   1.402       .  A
C172        H176   1.084       .  S
C173        C174   1.410       .  A
C173        C361   1.496       .  S
C174        H177   1.083       .  S
Zr178       O179   2.439       .  S
Zr178       O180   2.412       .  S
Zr178       O181   2.419   1_554  S
Zr178       O184   2.425       .  S
Zr178       O186   2.381   1_554  S
Zr178       O187   2.381       .  S
Zr178       O188   2.393   1_554  S
Zr178       O189   2.392       .  S
O179        H235   0.989       .  S
O179        H243   0.991   1_554  S
O180        C200   1.280       .  A
O181        C202   1.284       .  A
O182       Zr192   2.453       .  S
O182        C201   1.289       .  A
O183       Zr191   2.418       .  S
O183        C202   1.281       .  A
O184        C201   1.284       .  A
O185       Zr193   2.467       .  S
O185        C200   1.291       .  A
O186       Zr191   2.398       .  S
O186       Zr193   2.368   1_556  S
O187       Zr192   2.396       .  S
O187       Zr193   2.365       .  S
O187        H222   0.967       .  S
O188       Zr191   2.402       .  S
O188       Zr208   2.376       .  S
O188        H225   0.967       .  S
O189       Zr192   2.396       .  S
O189       Zr208   2.387   1_554  S
Zr190       O215   2.441       .  S
Zr190       O209   2.449       .  S
Zr190       O217   2.413   1_556  S
Zr190       O205   2.433       .  S
Zr190       O196   2.411   1_556  S
Zr190       O197   2.405       .  S
Zr190       O198   2.369       .  S
Zr190       O199   2.383   1_556  S
Zr191       O210   2.433       .  S
Zr191       O203   2.436       .  S
Zr191       O204   2.450       .  S
Zr191       O197   2.390       .  S
Zr191       O198   2.378       .  S
Zr192       O194   2.434       .  S
Zr192       O216   2.437       .  S
Zr192       O218   2.467       .  S
Zr192       O196   2.393       .  S
Zr192       O199   2.389       .  S
Zr193       O219   2.437       .  S
Zr193       O220   2.436       .  S
Zr193       O195   2.434   1_554  S
Zr193       O196   2.410       .  S
Zr193       O197   2.409   1_554  S
O194        H231   0.990       .  S
O195        H226   0.990   1_556  S
O195        H240   0.990       .  S
O197        H223   0.966       .  S
O198       Zr208   2.380       .  S
O199       Zr208   2.379   1_554  S
O199        H224   0.967       .  S
C200        C362   1.486       .  S
C201        C389   1.480       .  S
C202        C353   1.462       .  S
O203        H239   0.990       .  S
O204        C206   1.288       .  A
O205        C206   1.284       .  A
C206        C370   1.483       .  S
O207       Zr208   2.434       .  S
O207        H236   0.990       .  S
Zr208       O211   2.438       .  S
Zr208       O212   2.440   1_556  S
Zr208       O213   2.392       .  S
O209        C214   1.288       .  A
O210        H227   0.990       .  S
O210        H242   0.990       .  S
O211        H228   0.990       .  S
O212        H232   0.990       .  S
O212        H241   0.990       .  S
O213        C214   1.276       .  A
C214        C350   1.467       .  S
O215        H234   0.991   1_556  S
O215        H238   0.989       .  S
O216        H230   0.990       .  S
O216        H237   0.990       .  S
O217        C221   1.282       .  A
O218        C221   1.291       .  A
O219        H229   0.990       .  S
O220        H233   0.990       .  S
C221        C357   1.486       .  S
C244        C245   1.397       .  A
C244        C249   1.404       .  A
C244        C345   1.465       .  S
C245        C246   1.394       .  A
C245        H250   1.085       .  S
C246        C247   1.409       .  A
C246        C349   1.479       .  S
C247        C248   1.409       .  A
C247        H251   1.081       .  S
C248        C249   1.398       .  A
C248        C378   1.487       .  S
C249        H252   1.084       .  S
C253        C254   1.394       .  A
C253       C1122   1.402   1_545  A
C253        C354   1.465       .  S
C254        C255   1.394       .  A
C254        H259   1.085       .  S
C255       C1120   1.413   1_545  A
C255       C1205   1.481       .  S
C256        C257   1.409       .  A
C256        C687   1.411       .  A
C256        H260   1.081       .  S
C257        C258   1.402       .  A
C257        C406   1.488       .  S
C258        C685   1.401       .  A
C258        H261   1.084       .  S
C262        C263   1.413       .  A
C262        C267   1.407       .  A
C262        C358   1.489       .  S
C263        C264   1.412       .  A
C263        H268   1.083       .  S
C264        C265   1.397       .  A
C264        C338   1.491       .  S
C265        C266   1.403       .  A
C265        H701   1.084       .  S
C266        C267   1.401       .  A
C266        C842   1.477       .  S
C267        H270   1.083       .  S
H269       C1129   1.083       .  S
Zr271       O272   2.435       .  S
Zr271       O273   2.406       .  S
Zr271       O274   2.417   1_554  S
Zr271       O277   2.422       .  S
Zr271       O279   2.374   1_554  S
Zr271       O280   2.382       .  S
Zr271       O281   2.392   1_554  S
Zr271       O282   2.390       .  S
O272        H328   0.990       .  S
O272        H336   0.991       .  S
O273        C293   1.278       .  A
O274        C295   1.283       .  A
O275       Zr285   2.443       .  S
O275        C294   1.287       .  A
O276       Zr284   2.413       .  S
O276        C295   1.279       .  A
O277        C294   1.284       .  A
O278       Zr286   2.464       .  S
O278       C1157   1.289   1_545  A
O279       Zr284   2.392       .  S
O279       Zr718   2.368   1_556  S
O280       Zr285   2.397       .  S
O280       Zr718   2.369       .  S
O280        H315   0.965       .  S
O281       Zr284   2.402       .  S
O281       Zr301   2.382   1_455  S
O281        H318   0.966       .  S
O282       Zr285   2.384       .  S
O282       Zr301   2.381   1_454  S
Zr283       O308   2.435       .  S
Zr283       O302   2.458       .  S
Zr283       O310   2.431   1_556  S
Zr283       O298   2.420       .  S
Zr283       O289   2.404   1_656  S
Zr283       O290   2.414   1_655  S
Zr283      O1155   2.369   1_545  S
Zr283      O1156   2.377   1_546  S
Zr284       O303   2.437   1_455  S
Zr284       O728   2.435       .  S
Zr284       O729   2.439   1_455  S
Zr284       O291   2.378   1_455  S
Zr284       O722   2.391       .  S
Zr285       O287   2.433   1_455  S
Zr285       O741   2.434       .  S
Zr285       O743   2.433   1_455  S
Zr285       O292   2.390   1_455  S
Zr285       O721   2.396       .  S
Zr286       O312   2.437       .  S
Zr286       O313   2.430       .  S
Zr286       O288   2.439   1_554  S
Zr286       O289   2.410       .  S
Zr286       O290   2.412   1_554  S
Zr286      O1143   2.366   1_544  S
Zr286      O1144   2.366   1_545  S
O287        H324   0.990   1_655  S
O288        H319   0.990   1_556  S
O288        H333   0.990       .  S
O289      Zr1149   2.384   1_545  S
O290      Zr1148   2.394   1_545  S
O290        H316   0.966       .  S
O291       Zr301   2.380       .  S
O291       Zr715   2.370       .  S
O292       Zr301   2.378   1_554  S
O292       Zr715   2.381   1_554  S
O292        H317   0.967       .  S
C293        C337   1.484       .  S
C293        O710   1.291       .  A
C294        C393   1.474       .  S
C295        C346   1.459       .  S
O296      Zr1148   2.433   1_545  S
O296        H332   0.990       .  S
O297      Zr1148   2.432   1_645  S
O297        C299   1.285       .  A
O298        C299   1.282       .  A
C299        C426   1.472       .  S
O300       Zr301   2.429   1_554  S
O300        H329   0.990       .  S
Zr301       O304   2.436       .  S
Zr301       O305   2.443   1_556  S
Zr301       O306   2.387       .  S
O302       C1171   1.290   1_545  A
O303        H320   0.990       .  S
O303        H335   0.990       .  S
O304        H321   0.990       .  S
O305        H325   0.991       .  S
O305        H334   0.990       .  S
O306        C307   1.275       .  A
C307        C342   1.469       .  S
C307        O734   1.289       .  A
O308        H327   0.991   1_556  S
O308        H331   0.990       .  S
O309      Zr1149   2.438       .  S
O309        H323   0.990       .  S
O309        H330   0.990       .  S
O310        C314   1.285       .  A
O311      Zr1149   2.470   1_645  S
O311        C314   1.291       .  A
O312        H322   0.990       .  S
O313        H326   0.990       .  S
C314        C365   1.497       .  S
C337        C338   1.341       .  D
C337        H339   1.087       .  S
C338        H340   1.087       .  S
C341        C687   1.483       .  S
C341        C342   1.338       .  D
C341        H775   1.087       .  S
C342        H344   1.087       .  S
H343       C1205   1.087       .  S
C345        C346   1.337       .  D
C345        H347   1.088       .  S
C346        H348   1.087       .  S
C349        C350   1.337       .  D
C349        H351   1.087       .  S
C350        H352   1.087       .  S
C353        C354   1.337       .  D
C353        H355   1.087       .  S
C354        H356   1.088       .  S
C357        C358   1.354       .  D
C357        H359   1.086       .  S
C358        H360   1.087       .  S
C361        C362   1.346       .  D
C361        H363   1.087       .  S
C362        H364   1.086       .  S
C365        C366   1.354       .  D
C365        H367   1.086       .  S
C366        H368   1.087       .  S
C369        C370   1.348       .  D
C369        H371   1.087       .  S
C370        H372   1.086       .  S
C373        C374   1.350       .  D
C373        H807   1.086       .  S
C374        C596   1.487       .  S
C374        H376   1.087       .  S
H375       C1237   1.086       .  S
C377        C378   1.341       .  D
C377        H379   1.086       .  S
C378        H380   1.087       .  S
C381        C382   1.350       .  D
C381        H383   1.087       .  S
C382        H384   1.086       .  S
C385        C386   1.345       .  D
C385        H387   1.087       .  S
C386        H820   1.086       .  S
H388       C1250   1.085       .  S
C389        C390   1.345       .  D
C389        H391   1.087       .  S
C390        C951   1.488       .  S
C390        H392   1.087       .  S
C393        C394   1.345       .  D
C393        H395   1.087       .  S
C394        H396   1.087       .  S
C397        C398   1.346       .  D
C397        H399   1.087       .  S
C398        H400   1.087       .  S
C401        C402   1.344       .  D
C401        H403   1.086       .  S
C402        H404   1.087       .  S
C405        C406   1.345       .  D
C405        H407   1.085       .  S
C406        H408   1.087       .  S
C409        C410   1.346       .  D
C409        H411   1.086       .  S
C410       C1130   1.487   1_545  S
C410       H1276   1.087       .  S
H412        C842   1.087       .  S
C413        C414   1.342       .  D
C413        H415   1.088       .  S
C414        H416   1.086       .  S
C417        C418   1.344       .  D
C417        H419   1.087       .  S
C418        H420   1.087       .  S
C421        C422   1.341       .  D
C421        H423   1.087       .  S
C422        H424   1.087       .  S
C425        C426   1.343       .  D
C425        H427   1.087       .  S
C426        H428   1.086       .  S
C429        C430   1.340       .  D
C429        H431   1.087       .  S
C430        H432   1.087       .  S
C433        C434   1.407       .  A
C433        C438   1.400       .  A
C433        C861   1.478       .  S
C434        C435   1.406       .  A
C434        H439   1.084       .  S
C435        C436   1.406       .  A
C435        C857   1.483       .  S
C436        C437   1.400       .  A
C436        H440   1.084       .  S
C437        C438   1.403       .  A
C437        C853   1.479       .  S
C438        H441   1.083       .  S
Zr442       O443   2.436       .  S
Zr442       O444   2.422       .  S
Zr442       O445   2.436       .  S
Zr442       O448   2.421       .  S
Zr442       O450   2.376       .  S
Zr442       O451   2.383       .  S
Zr442       O452   2.399       .  S
Zr442       O453   2.400       .  S
O443        H499   0.990       .  S
O443        H507   0.991       .  S
O444        C464   1.281       .  A
O445        C466   1.286       .  A
O446       Zr456   2.429       .  S
O446        C465   1.285       .  A
O447       Zr455   2.429       .  S
O447        C466   1.283       .  A
O448        C465   1.282       .  A
O449       Zr457   2.427       .  S
O449        C464   1.283       .  A
O450       Zr455   2.394       .  S
O450       Zr457   2.378       .  S
O451       Zr456   2.393       .  S
O451       Zr457   2.371       .  S
O451        H486   0.967       .  S
O452       Zr455   2.396       .  S
O452       Zr472   2.395       .  S
O452        H489   0.965       .  S
O453       Zr456   2.396       .  S
O453       Zr472   2.394       .  S
Zr454       O479   2.439       .  S
Zr454       O473   2.414       .  S
Zr454       O481   2.418       .  S
Zr454       O469   2.422       .  S
Zr454       O460   2.397       .  S
Zr454       O461   2.396       .  S
Zr454       O462   2.376       .  S
Zr454       O463   2.379       .  S
Zr455       O474   2.438       .  S
Zr455       O467   2.433       .  S
Zr455       O468   2.434       .  S
Zr455       O461   2.396       .  S
Zr455       O462   2.382       .  S
Zr456       O458   2.436       .  S
Zr456       O480   2.438       .  S
Zr456       O482   2.437       .  S
Zr456       O460   2.393       .  S
Zr456       O463   2.385       .  S
Zr457       O483   2.438       .  S
Zr457       O484   2.431       .  S
Zr457       O459   2.436       .  S
Zr457       O460   2.398       .  S
Zr457       O461   2.394       .  S
O458        H495   0.990       .  S
O459        H490   0.990       .  S
O459        H504   0.990       .  S
O461        H487   0.966       .  S
O462       Zr472   2.373       .  S
O463       Zr472   2.372       .  S
O463        H488   0.966       .  S
C464        C833   1.472       .  S
C465        C841   1.468       .  S
C466        C845   1.477       .  S
O467        H503   0.990       .  S
O468        C470   1.286       .  A
O469        C470   1.282       .  A
C470        C837   1.472       .  S
O471       Zr472   2.432       .  S
O471        H500   0.990       .  S
Zr472       O475   2.438       .  S
Zr472       O476   2.440       .  S
Zr472       O477   2.428       .  S
O473        C478   1.280       .  A
O474        H491   0.990       .  S
O474        H506   0.990       .  S
O475        H492   0.990       .  S
O476        H496   0.990       .  S
O476        H505   0.990       .  S
O477        C478   1.284       .  A
C478        C854   1.470       .  S
O479        H498   0.991       .  S
O479        H502   0.989       .  S
O480        H494   0.990       .  S
O480        H501   0.990       .  S
O481        C485   1.283       .  A
O482        C485   1.284       .  A
O483        H493   0.990       .  S
O484        H497   0.990       .  S
C485        C849   1.475       .  S
C508        C509   1.404       .  A
C508        C513   1.399       .  A
C508        C829   1.479       .  S
C509        C510   1.403       .  A
C509        H514   1.084       .  S
C510        C511   1.407       .  A
C510        C826   1.482       .  S
C511        C512   1.403       .  A
C511        H515   1.083       .  S
C512        C513   1.405       .  A
C512        C834   1.482       .  S
C513        H516   1.083       .  S
C517        C518   1.404       .  A
C517        C522   1.401       .  A
C517        C850   1.477       .  S
C518        C519   1.401       .  A
C518        H523   1.084       .  S
C519        C520   1.412       .  A
C519       C1254   1.486       .  S
C520        C521   1.407       .  A
C520        H956   1.083       .  S
C521        C522   1.406       .  A
C521        C817   1.493       .  S
C522        H525   1.082       .  S
Zr526       O527   2.440       .  S
Zr526       O528   2.430       .  S
Zr526       O529   2.429       .  S
Zr526       O532   2.416       .  S
Zr526       O534   2.380       .  S
Zr526       O535   2.380       .  S
Zr526       O536   2.395   1_655  S
Zr526       O537   2.402   1_655  S
O527        H583   0.990       .  S
O527        H591   0.991       .  S
O528        C548   1.283       .  A
O529        C550   1.285       .  A
O530       Zr540   2.458   1_655  S
O530        C549   1.290       .  A
O531       Zr539   2.441       .  S
O531        C550   1.285   1_455  A
O532        C549   1.282       .  A
O533       Zr541   2.428       .  S
O534       Zr539   2.396   1_655  S
O534       Zr973   2.380       .  S
O535       Zr540   2.394   1_655  S
O535       Zr973   2.364       .  S
O535        H570   0.967       .  S
O536       Zr539   2.399       .  S
O536       Zr556   2.382       .  S
O536        H573   0.966       .  S
O537       Zr540   2.397       .  S
O537       Zr556   2.397       .  S
Zr538       O563   2.441       .  S
Zr538       O557   2.448       .  S
Zr538       O565   2.440       .  S
Zr538       O553   2.470       .  S
Zr538       O544   2.416       .  S
Zr538       O545   2.408       .  S
Zr539       O558   2.436       .  S
Zr539       O983   2.436   1_455  S
Zr539       O984   2.438       .  S
Zr539       O977   2.398       .  S
Zr539       O546   2.389       .  S
Zr540       O542   2.435       .  S
Zr540       O996   2.439       .  S
Zr540       O998   2.462       .  S
Zr540       O976   2.395       .  S
Zr540       O547   2.388       .  S
Zr541       O567   2.436       .  S
Zr541       O568   2.436       .  S
Zr541       O543   2.438       .  S
Zr541       O544   2.400   1_655  S
Zr541       O545   2.397   1_655  S
O542        H579   0.990       .  S
O543        H574   0.991       .  S
O543        H588   0.990       .  S
O545        H571   0.966       .  S
O546       Zr970   2.374       .  S
O546       Zr556   2.375       .  S
O547       Zr970   2.378       .  S
O547       Zr556   2.370       .  S
O547        H572   0.966       .  S
C548        C818   1.482       .  S
C548        O965   1.285       .  A
C549        C813   1.477       .  S
C550        C862   1.478       .  S
O551        H587   0.990       .  S
O552        C554   1.283       .  A
O553        C554   1.292       .  A
C554        C809   1.489       .  S
O555       Zr556   2.433       .  S
O555        H584   0.990       .  S
Zr556       O559   2.436       .  S
Zr556       O560   2.442       .  S
Zr556       O561   2.412       .  S
O558        H575   0.990       .  S
O558        H590   0.990       .  S
O559        H576   0.990       .  S
O560        H580   0.990       .  S
O560        H589   0.990       .  S
O561        C562   1.280       .  A
C562        C805   1.474       .  S
C562        O989   1.287       .  A
O563        H582   0.990       .  S
O563        H586   0.990       .  S
O564        H578   0.990       .  S
O564        H585   0.990       .  S
O565        C569   1.288       .  A
O566        C569   1.283       .  A
O567        H577   0.990       .  S
O568        H581   0.990       .  S
C569        C830   1.476       .  S
C592        C597   1.403       .  A
C592        C846   1.482       .  S
C593       C1024   1.410       .  A
C593        C594   1.412       .  A
C593        H598   1.083       .  S
C594        C595   1.401       .  A
C594        C801   1.489       .  S
C595       C1028   1.406       .  A
C595        H599   1.083       .  S
C596        C597   1.405       .  A
C597        H600   1.083       .  S
C601        C602   1.407       .  A
C601        C606   1.404       .  A
C601        C798   1.482       .  S
C602        C603   1.402       .  A
C602        H607   1.083       .  S
C603        C604   1.408       .  A
C603        C814   1.484       .  S
C604        C605   1.402       .  A
C604        H608   1.084       .  S
C605        C606   1.408       .  A
C605        C793   1.489       .  S
C606        H609   1.083       .  S
Zr610       O611   2.437       .  S
Zr610       O612   2.413       .  S
Zr610       O613   2.422   1_554  S
Zr610       O616   2.413       .  S
Zr610       O618   2.374       .  S
Zr610       O619   2.385       .  S
Zr610       O620   2.391   1_554  S
Zr610       O621   2.394       .  S
O611        H667   0.990       .  S
O611        H675   0.991   1_554  S
O612        C632   1.280       .  A
O613        C634   1.283       .  A
O614       Zr624   2.466       .  S
O614        C633   1.291       .  A
O615       Zr623   2.426       .  S
O615        C634   1.282       .  A
O616        C633   1.282       .  A
O617       Zr625   2.448       .  S
O617        C632   1.287       .  A
O618       Zr623   2.383   1_554  S
O618       Zr625   2.367       .  S
O619       Zr624   2.390       .  S
O619       Zr625   2.366       .  S
O619        H654   0.966       .  S
O620       Zr623   2.397       .  S
O620       Zr640   2.384       .  S
O620        H657   0.966       .  S
O621       Zr624   2.390       .  S
O621       Zr640   2.390   1_554  S
Zr622       O647   2.444   1_556  S
Zr622       O641   2.461       .  S
Zr622       O649   2.423   1_556  S
Zr622       O637   2.447       .  S
Zr622       O628   2.412   1_556  S
Zr622       O629   2.407       .  S
Zr622       O630   2.371       .  S
Zr622       O631   2.387   1_556  S
Zr623       O642   2.437       .  S
Zr623       O635   2.436       .  S
Zr623       O636   2.430       .  S
Zr623       O629   2.391       .  S
Zr623       O630   2.386       .  S
Zr624       O626   2.436       .  S
Zr624       O648   2.437       .  S
Zr624       O650   2.446       .  S
Zr624       O628   2.392       .  S
Zr624       O631   2.399       .  S
Zr625       O651   2.438       .  S
Zr625       O652   2.436       .  S
Zr625       O627   2.434       .  S
Zr625       O628   2.399       .  S
Zr625       O629   2.406   1_554  S
O626        H663   0.990       .  S
O627        H658   0.991       .  S
O627        H672   0.990       .  S
O629        H655   0.965       .  S
O630       Zr640   2.378       .  S
O631       Zr640   2.381   1_554  S
O631        H656   0.965       .  S
C632        C794   1.478       .  S
C633        C821   1.479       .  S
C634        C785   1.462       .  S
O635        H671   0.990       .  S
O636        C638   1.284       .  A
O637        C638   1.288       .  A
C638        C802   1.484       .  S
O639       Zr640   2.437       .  S
O639        H668   0.990       .  S
Zr640       O643   2.438       .  S
Zr640       O644   2.440       .  S
Zr640       O645   2.407       .  S
O641        C646   1.290       .  A
O642        H659   0.990       .  S
O642        H674   0.990       .  S
O643        H660   0.990       .  S
O644        H664   0.990       .  S
O644        H673   0.990       .  S
O645        C646   1.279       .  A
C646        C782   1.477       .  S
O647        H666   0.991       .  S
O647        H670   0.990   1_554  S
O648        H662   0.990       .  S
O648        H669   0.990       .  S
O649        C653   1.284       .  A
O650        C653   1.287       .  A
O651        H661   0.991       .  S
O652        H665   0.990       .  S
C653        C789   1.479       .  S
C676        C677   1.401       .  A
C676        C681   1.414       .  A
C676        C777   1.486       .  S
C677        C678   1.397       .  A
C677        H682   1.085       .  S
C678        C679   1.408       .  A
C678        C781   1.489       .  S
C679        C680   1.406       .  A
C679        H683   1.083       .  S
C680        C681   1.417       .  A
C680        C810   1.498       .  S
C681        H684   1.082       .  S
C685        C686   1.401       .  A
C685        C786   1.470       .  S
C686        C687   1.396       .  A
C686        H691   1.084       .  S
C688       C1119   1.407       .  A
C688        C689   1.406       .  A
C688        H692   1.082       .  S
C689        C690   1.401       .  A
C689        C838   1.482       .  S
C690       C1117   1.402       .  A
C690        H693   1.084       .  S
C694        C695   1.405       .  A
C694        C699   1.407       .  A
C694        C790   1.483       .  S
C695        C696   1.409       .  A
C695        H700   1.083       .  S
C696        C697   1.399       .  A
C696        C770   1.488       .  S
C697        C698   1.405       .  A
C697       H1133   1.084       .  S
C698        C699   1.403       .  A
C698       C1274   1.479       .  S
C699        H702   1.084       .  S
Zr703       O704   2.437   1_554  S
Zr703       O705   2.403       .  S
Zr703       O706   2.446   1_554  S
Zr703       O709   2.430       .  S
Zr703       O711   2.378   1_554  S
Zr703       O712   2.388       .  S
Zr703       O713   2.392   1_554  S
Zr703       O714   2.400       .  S
O704        H760   0.990       .  S
O704        H768   0.991       .  S
O705        C725   1.278       .  A
O706        C727   1.289       .  A
O707       Zr717   2.437       .  S
O707        C726   1.287       .  A
O708       Zr716   2.432       .  S
O708        C727   1.284       .  A
O709        C726   1.284       .  A
O710       Zr718   2.469       .  S
O711       Zr716   2.388       .  S
O711      Zr1150   2.373   1_556  S
O712       Zr717   2.393       .  S
O712      Zr1150   2.364       .  S
O712        H747   0.967       .  S
O713       Zr716   2.398       .  S
O713       Zr733   2.385   1_455  S
O713        H750   0.965       .  S
O714       Zr717   2.401       .  S
O714       Zr733   2.392   1_454  S
Zr715       O740   2.441       .  S
Zr715       O734   2.460       .  S
Zr715       O742   2.428   1_556  S
Zr715       O730   2.427       .  S
Zr715       O721   2.413   1_656  S
Zr715       O722   2.408   1_655  S
Zr716       O735   2.437   1_455  S
Zr716      O1160   2.435       .  S
Zr716      O1161   2.430   1_455  S
Zr716      O1154   2.399       .  S
Zr716       O723   2.387   1_455  S
Zr717       O719   2.435   1_455  S
Zr717      O1173   2.441       .  S
Zr717      O1175   2.461   1_455  S
Zr717      O1153   2.386       .  S
Zr717       O724   2.390   1_455  S
Zr718       O744   2.437       .  S
Zr718       O745   2.436       .  S
Zr718       O720   2.438   1_554  S
Zr718       O721   2.411       .  S
Zr718       O722   2.406   1_554  S
O719        H756   0.990       .  S
O720        H751   0.990   1_556  S
O720        H765   0.990       .  S
O722        H748   0.965       .  S
O723      Zr1147   2.377       .  S
O723       Zr733   2.376       .  S
O724      Zr1147   2.382   1_554  S
O724       Zr733   2.390   1_554  S
O724        H749   0.967       .  S
C725        C769   1.476       .  S
C725       O1142   1.289       .  A
C726        C825   1.476       .  S
C727        C778   1.484       .  S
O728        H764   0.990       .  S
O729        C731   1.286       .  A
O730        C731   1.283       .  A
C731        C858   1.476       .  S
O732       Zr733   2.442       .  S
O732        H761   0.991       .  S
Zr733       O736   2.440       .  S
Zr733       O737   2.439       .  S
Zr733       O738   2.398       .  S
O735        H752   0.990       .  S
O735        H767   0.990       .  S
O736        H753   0.990       .  S
O737        H757   0.990       .  S
O737        H766   0.990   1_556  S
O738        C739   1.277       .  A
C739        C774   1.468       .  S
C739       O1166   1.287       .  A
O740        H759   0.990       .  S
O740        H763   0.990   1_556  S
O741        H755   0.990       .  S
O741        H762   0.990       .  S
O742        C746   1.284       .  A
O743        C746   1.284       .  A
O744        H754   0.990       .  S
O745        H758   0.990       .  S
C746        C797   1.478       .  S
C769        C770   1.342       .  D
C769        H771   1.086       .  S
C770        H772   1.087       .  S
C773       C1119   1.481       .  S
C773        C774   1.340       .  D
C773       H1207   1.087       .  S
C774        H776   1.087       .  S
C777        C778   1.343       .  D
C777        H779   1.087       .  S
C778        H780   1.086       .  S
C781        C782   1.342       .  D
C781        H783   1.087       .  S
C782        H784   1.086       .  S
C785        C786   1.340       .  D
C785        H787   1.087       .  S
C786        H788   1.088       .  S
C789        C790   1.346       .  D
C789        H791   1.086       .  S
C790        H792   1.087       .  S
C793        C794   1.345       .  D
C793        H795   1.087       .  S
C794        H796   1.086       .  S
C797        C798   1.346       .  D
C797        H799   1.086       .  S
C798        H800   1.087       .  S
C801        C802   1.345       .  D
C801        H803   1.087       .  S
C802        H804   1.086       .  S
C805        C806   1.344       .  D
C805       H1239   1.086       .  S
C806       C1028   1.488       .  S
C806        H808   1.087       .  S
C809        C810   1.345       .  D
C809        H811   1.086       .  S
C810        H812   1.086       .  S
C813        C814   1.342       .  D
C813        H815   1.088       .  S
C814        H816   1.086       .  S
C817        C818   1.350       .  D
C817        H819   1.087       .  S
C818       H1252   1.085       .  S
C821        C822   1.345       .  D
C821        H823   1.088       .  S
C822        H824   1.086       .  S
C825        C826   1.345       .  D
C825        H827   1.086       .  S
C826        H828   1.087       .  S
C829        C830   1.342       .  D
C829        H831   1.087       .  S
C830        H832   1.087       .  S
C833        C834   1.345       .  D
C833        H835   1.086       .  S
C834        H836   1.087       .  S
C837        C838   1.344       .  D
C837        H839   1.086       .  S
C838        H840   1.087       .  S
C841        C842   1.342       .  D
C841        H843   1.087       .  S
H844       C1274   1.087       .  S
C845        C846   1.343       .  D
C845        H847   1.087       .  S
C846        H848   1.087       .  S
C849        C850   1.344       .  D
C849        H851   1.086       .  S
C850        H852   1.087       .  S
C853        C854   1.343       .  D
C853        H855   1.087       .  S
C854        H856   1.086       .  S
C857        C858   1.345       .  D
C857        H859   1.087       .  S
C858        H860   1.087       .  S
C861        C862   1.344       .  D
C861        H863   1.087       .  S
C862        H864   1.087       .  S
C865        C866   1.405       .  A
C865        C870   1.399       .  A
C865       C1293   1.472       .  S
C866        C867   1.404       .  A
C866        H871   1.084       .  S
C867        C868   1.407       .  A
C867       C1289   1.484       .  S
C868        C869   1.401       .  A
C868        H872   1.083       .  S
C869        C870   1.402       .  A
C869       C1285   1.481       .  S
C870        H873   1.083       .  S
Zr874       O875   2.431       .  S
Zr874       O876   2.417       .  S
Zr874       O877   2.428       .  S
Zr874       O880   2.430       .  S
Zr874       O882   2.377       .  S
Zr874       O883   2.380       .  S
Zr874       O884   2.399       .  S
Zr874       O885   2.398       .  S
O875        H931   0.990       .  S
O875        H939   0.990       .  S
O876        C896   1.280       .  A
O877        C898   1.284       .  A
O878       Zr888   2.430       .  S
O878        C897   1.286       .  A
O879       Zr887   2.454       .  S
O879        C898   1.288       .  A
O880        C897   1.284       .  A
O881       Zr889   2.459       .  S
O881        C896   1.289       .  A
O882       Zr887   2.397       .  S
O882       Zr889   2.371       .  S
O883       Zr888   2.395       .  S
O883       Zr889   2.364       .  S
O883        H918   0.967       .  S
O884       Zr887   2.401       .  S
O884       Zr904   2.392       .  S
O884        H921   0.966       .  S
O885       Zr888   2.400       .  S
O885       Zr904   2.398       .  S
Zr886       O911   2.435       .  S
Zr886       O905   2.431       .  S
Zr886       O913   2.426       .  S
Zr886       O901   2.419       .  S
Zr886       O892   2.400       .  S
Zr886       O893   2.410       .  S
Zr886       O894   2.375       .  S
Zr886       O895   2.376       .  S
Zr887       O906   2.438       .  S
Zr887       O899   2.436       .  S
Zr887       O900   2.460       .  S
Zr887       O893   2.397       .  S
Zr887       O894   2.387       .  S
Zr888       O890   2.436       .  S
Zr888       O912   2.437       .  S
Zr888       O914   2.454       .  S
Zr888       O892   2.387       .  S
Zr888       O895   2.381       .  S
Zr889       O915   2.438       .  S
Zr889       O916   2.435       .  S
Zr889       O891   2.436       .  S
Zr889       O892   2.408       .  S
Zr889       O893   2.413       .  S
O890        H927   0.990       .  S
O891        H922   0.990       .  S
O891        H936   0.990       .  S
O893        H919   0.966       .  S
O894       Zr904   2.369       .  S
O895       Zr904   2.379       .  S
O895        H920   0.965       .  S
C896       C1265   1.485       .  S
C897       C1273   1.471       .  S
C898       C1277   1.479       .  S
O899        H935   0.990       .  S
O900        C902   1.291       .  A
O901        C902   1.282       .  A
C902       C1269   1.482       .  S
O903       Zr904   2.437       .  S
O903        H932   0.990       .  S
Zr904       O907   2.438       .  S
Zr904       O908   2.438       .  S
Zr904       O909   2.427       .  S
O905        C910   1.283       .  A
O906        H923   0.990       .  S
O906        H938   0.990       .  S
O907        H924   0.990       .  S
O908        H928   0.990       .  S
O908        H937   0.990       .  S
O909        C910   1.284       .  A
C910       C1286   1.476       .  S
O911        H930   0.990       .  S
O911        H934   0.989       .  S
O912        H926   0.990       .  S
O912        H933   0.990       .  S
O913        C917   1.284       .  A
O914        C917   1.288       .  A
O915        H925   0.990       .  S
O916        H929   0.990       .  S
C917       C1281   1.485       .  S
C940        C941   1.406       .  A
C940        C945   1.413       .  A
C940       C1261   1.490       .  S
C941        C942   1.402       .  A
C941        H946   1.084       .  S
C942        C943   1.405       .  A
C942       C1258   1.483       .  S
C943        C944   1.401       .  A
C943        H947   1.084       .  S
C944        C945   1.411       .  A
C944       C1266   1.492       .  S
C945        H948   1.082       .  S
C949        C950   1.407       .  A
C949        C954   1.408       .  A
C949       C1282   1.489       .  S
C950        C951   1.404   1_565  A
C950        H955   1.084       .  S
C951        C952   1.409       .  A
C952        C953   1.406   1_545  A
C953        C954   1.412       .  A
C953       C1249   1.498       .  S
C954        H957   1.082       .  S
Zr958       O959   2.435       .  S
Zr958       O960   2.422       .  S
Zr958       O961   2.422       .  S
Zr958       O964   2.437       .  S
Zr958       O966   2.383       .  S
Zr958       O967   2.375       .  S
Zr958       O968   2.403   1_655  S
Zr958       O969   2.393   1_655  S
O959       H1015   0.990       .  S
O959       H1023   0.991       .  S
O960        C980   1.281       .  A
O961        C982   1.284       .  A
O962       Zr972   2.446   1_655  S
O962        C981   1.287       .  A
O963       Zr971   2.436   1_665  S
O963        C982   1.284       .  A
O964        C981   1.286       .  A
O965       Zr973   2.438       .  S
O966       Zr971   2.399   1_665  S
O967       Zr972   2.398   1_655  S
O967       H1002   0.964       .  S
O968       Zr971   2.407   1_565  S
O968       Zr988   2.385       .  S
O968       H1005   0.966       .  S
O969       Zr972   2.399       .  S
O969       Zr988   2.394       .  S
Zr970       O995   2.436       .  S
Zr970       O989   2.444       .  S
Zr970       O997   2.423       .  S
Zr970       O985   2.433       .  S
Zr970       O976   2.406       .  S
Zr970       O977   2.406       .  S
Zr971       O990   2.438   1_545  S
Zr971       O978   2.384   1_545  S
Zr972       O974   2.436       .  S
Zr972       O979   2.393       .  S
Zr973       O999   2.435       .  S
Zr973      O1000   2.434       .  S
Zr973       O975   2.437       .  S
Zr973       O976   2.403   1_655  S
Zr973       O977   2.395   1_655  S
O974       H1011   0.990       .  S
O975       H1006   0.990       .  S
O975       H1020   0.990       .  S
O977       H1003   0.965       .  S
O978       Zr988   2.369       .  S
O979       Zr988   2.383       .  S
O979       H1004   0.967       .  S
C980       C1250   1.487       .  S
C981       C1245   1.483       .  S
C982       C1294   1.474       .  S
O983       H1019   0.990       .  S
O984        C986   1.286       .  A
O985        C986   1.286       .  A
C986       C1241   1.479       .  S
O987       Zr988   2.433       .  S
O987       H1016   0.991       .  S
Zr988       O991   2.441       .  S
Zr988       O992   2.437       .  S
Zr988       O993   2.407       .  S
O990       H1007   0.990       .  S
O990       H1022   0.990       .  S
O991       H1008   0.990       .  S
O992       H1012   0.990       .  S
O992       H1021   0.990       .  S
O993        C994   1.279       .  A
C994       C1237   1.479       .  S
O995       H1014   0.990       .  S
O995       H1018   0.990       .  S
O996       H1010   0.990       .  S
O996       H1017   0.990   1_455  S
O997       C1001   1.283       .  A
O998       C1001   1.291       .  A
O999       H1009   0.990       .  S
O1000      H1013   0.990   1_655  S
C1001      C1262   1.481       .  S
C1024      C1029   1.409       .  A
C1024      C1278   1.491       .  S
C1025      C1026   1.407       .  A
C1025      H1030   1.083       .  S
C1026      C1027   1.405       .  A
C1026      C1233   1.489   1_545  S
C1027      H1031   1.083   1_545  S
C1028      C1029   1.400       .  A
C1029      H1032   1.084       .  S
C1033      C1034   1.415       .  A
C1033      C1038   1.408       .  A
C1033      C1230   1.496       .  S
C1034      C1035   1.413       .  A
C1034      H1039   1.083       .  S
C1035      C1036   1.407       .  A
C1035      C1246   1.493       .  S
C1036      C1037   1.397       .  A
C1036      H1040   1.084       .  S
C1037      C1038   1.409       .  A
C1037      C1225   1.491       .  S
C1038      H1041   1.083       .  S
Zr1042     O1043   2.439       .  S
Zr1042     O1044   2.402       .  S
Zr1042     O1045   2.427   1_554  S
Zr1042     O1048   2.417       .  S
Zr1042     O1050   2.379       .  S
Zr1042     O1051   2.383       .  S
Zr1042     O1052   2.391   1_554  S
Zr1042     O1053   2.396       .  S
O1043      H1099   0.989       .  S
O1043      H1107   0.991   1_554  S
O1044      C1064   1.278       .  A
O1045      C1066   1.284       .  A
O1046     Zr1056   2.458       .  S
O1046      C1065   1.290       .  A
O1047     Zr1055   2.425       .  S
O1047      C1066   1.282       .  A
O1048      C1065   1.282       .  A
O1049     Zr1057   2.461       .  S
O1049      C1064   1.289       .  A
O1050     Zr1055   2.388   1_554  S
O1050     Zr1057   2.369       .  S
O1051     Zr1056   2.392       .  S
O1051     Zr1057   2.362       .  S
O1051      H1086   0.966       .  S
O1052     Zr1055   2.399       .  S
O1052     Zr1072   2.377       .  S
O1052      H1089   0.966       .  S
O1053     Zr1056   2.398       .  S
O1053     Zr1072   2.392   1_554  S
Zr1054     O1079   2.439   1_556  S
Zr1054     O1073   2.448       .  S
Zr1054     O1081   2.435   1_556  S
Zr1054     O1069   2.444       .  S
Zr1054     O1060   2.411   1_556  S
Zr1054     O1061   2.413       .  S
Zr1054     O1062   2.375       .  S
Zr1054     O1063   2.383   1_556  S
Zr1055     O1074   2.438       .  S
Zr1055     O1067   2.436       .  S
Zr1055     O1068   2.433       .  S
Zr1055     O1061   2.395       .  S
Zr1055     O1062   2.383       .  S
Zr1056     O1058   2.434       .  S
Zr1056     O1080   2.435       .  S
Zr1056     O1082   2.454       .  S
Zr1056     O1060   2.395       .  S
Zr1056     O1063   2.391       .  S
Zr1057     O1083   2.436       .  S
Zr1057     O1084   2.437       .  S
Zr1057     O1059   2.436       .  S
Zr1057     O1060   2.410       .  S
Zr1057     O1061   2.407   1_554  S
O1058      H1095   0.990       .  S
O1059      H1090   0.990       .  S
O1059      H1104   0.990       .  S
O1061      H1087   0.965       .  S
O1062     Zr1072   2.376       .  S
O1063     Zr1072   2.378   1_554  S
O1063      H1088   0.965       .  S
C1064      C1226   1.478       .  S
C1065      C1253   1.477       .  S
C1066      C1217   1.462       .  S
O1067      H1103   0.990       .  S
O1068      C1070   1.285       .  A
O1069      C1070   1.288       .  A
C1070      C1234   1.482       .  S
O1071     Zr1072   2.438       .  S
O1071      H1100   0.990       .  S
Zr1072     O1075   2.439       .  S
Zr1072     O1076   2.439       .  S
Zr1072     O1077   2.396       .  S
O1073      C1078   1.287       .  A
O1074      H1091   0.990       .  S
O1074      H1106   0.990       .  S
O1075      H1092   0.990       .  S
O1076      H1096   0.990       .  S
O1076      H1105   0.990   1_556  S
O1077      C1078   1.277       .  A
C1078      C1214   1.468       .  S
O1079      H1098   0.990       .  S
O1079      H1102   0.990       .  S
O1080      H1094   0.990       .  S
O1080      H1101   0.990       .  S
O1081      C1085   1.285       .  A
O1082      C1085   1.288       .  A
O1083      H1093   0.990       .  S
O1084      H1097   0.990       .  S
C1085      C1221   1.488       .  S
C1108      C1109   1.400       .  A
C1108      C1113   1.406       .  A
C1108      C1209   1.475       .  S
C1109      C1110   1.398       .  A
C1109      H1114   1.085       .  S
C1110      C1111   1.409       .  A
C1110      C1213   1.484       .  S
C1111      C1112   1.401       .  A
C1111      H1115   1.083       .  S
C1112      C1113   1.406       .  A
C1112      C1242   1.484       .  S
C1113      H1116   1.083       .  S
C1117      C1118   1.403       .  A
C1117      C1218   1.471       .  S
C1118      C1119   1.396       .  A
C1118      H1123   1.084       .  S
C1120      C1121   1.413       .  A
C1120      H1124   1.082       .  S
C1121      C1122   1.401       .  A
C1121      C1270   1.490       .  S
C1122      H1125   1.084       .  S
C1126      C1127   1.410       .  A
C1126      C1131   1.408       .  A
C1126      C1222   1.492       .  S
C1127      C1128   1.412       .  A
C1127      H1132   1.083       .  S
C1128      C1129   1.404   1_565  A
C1128      C1202   1.497       .  S
C1129      C1130   1.409   1_545  A
C1130      C1131   1.405       .  A
C1131      H1134   1.084       .  S
Zr1135     O1136   2.437   1_554  S
Zr1135     O1137   2.425       .  S
Zr1135     O1138   2.434   1_554  S
Zr1135     O1141   2.427       .  S
Zr1135     O1143   2.376   1_554  S
Zr1135     O1144   2.379       .  S
Zr1135     O1145   2.395   1_554  S
Zr1135     O1146   2.400       .  S
O1136      H1192   0.990   1_556  S
O1136      H1200   0.991       .  S
O1137      C1157   1.283       .  A
O1138      C1159   1.287       .  A
O1139     Zr1149   2.442       .  S
O1139      C1158   1.288       .  A
O1140     Zr1148   2.420       .  S
O1140      C1159   1.282       .  A
O1141      C1158   1.285       .  A
O1142     Zr1150   2.456       .  S
O1143     Zr1148   2.394       .  S
O1144     Zr1149   2.399       .  S
O1144      H1179   0.966       .  S
O1145     Zr1148   2.395       .  S
O1145     Zr1165   2.384   1_455  S
O1145      H1182   0.965       .  S
O1146     Zr1149   2.400       .  S
O1146     Zr1165   2.392   1_454  S
Zr1147     O1172   2.444       .  S
Zr1147     O1166   2.447       .  S
Zr1147     O1174   2.438   1_556  S
Zr1147     O1162   2.428       .  S
Zr1147     O1153   2.403   1_656  S
Zr1147     O1154   2.412   1_655  S
Zr1148     O1167   2.438   1_455  S
Zr1148     O1155   2.377   1_455  S
Zr1149     O1151   2.433   1_455  S
Zr1149     O1156   2.390   1_455  S
Zr1150     O1176   2.437       .  S
Zr1150     O1177   2.435       .  S
Zr1150     O1152   2.436   1_554  S
Zr1150     O1153   2.401       .  S
Zr1150     O1154   2.406   1_554  S
O1151      H1188   0.990       .  S
O1152      H1183   0.990   1_556  S
O1152      H1197   0.990       .  S
O1154      H1180   0.966       .  S
O1155     Zr1165   2.368       .  S
O1156     Zr1165   2.389   1_554  S
O1156      H1181   0.966       .  S
C1157      C1201   1.489       .  S
C1158      C1257   1.475       .  S
C1159      C1210   1.471       .  S
O1160      H1196   0.990       .  S
O1161      C1163   1.285       .  A
O1162      C1163   1.283       .  A
C1163      C1290   1.472       .  S
O1164     Zr1165   2.432       .  S
O1164      H1193   0.990       .  S
Zr1165     O1168   2.439       .  S
Zr1165     O1169   2.438       .  S
Zr1165     O1170   2.402       .  S
O1167      H1184   0.990       .  S
O1167      H1199   0.990       .  S
O1168      H1185   0.990       .  S
O1169      H1189   0.990       .  S
O1169      H1198   0.990   1_556  S
O1170      C1171   1.277       .  A
C1171      C1206   1.474       .  S
O1172      H1191   0.990   1_556  S
O1172      H1195   0.988       .  S
O1173      H1187   0.990       .  S
O1173      H1194   0.990       .  S
O1174      C1178   1.286       .  A
O1175      C1178   1.289       .  A
O1176      H1186   0.990       .  S
O1177      H1190   0.990       .  S
C1178      C1229   1.496       .  S
C1201      C1202   1.348       .  D
C1201      H1203   1.086       .  S
C1202      H1204   1.087   1_565  S
C1205      C1206   1.338   1_545  D
C1206      H1208   1.087       .  S
C1209      C1210   1.341       .  D
C1209      H1211   1.088       .  S
C1210      H1212   1.087       .  S
C1213      C1214   1.339       .  D
C1213      H1215   1.087       .  S
C1214      H1216   1.086       .  S
C1217      C1218   1.340       .  D
C1217      H1219   1.087       .  S
C1218      H1220   1.088       .  S
C1221      C1222   1.352       .  D
C1221      H1223   1.086       .  S
C1222      H1224   1.087       .  S
C1225      C1226   1.342       .  D
C1225      H1227   1.087       .  S
C1226      H1228   1.086       .  S
C1229      C1230   1.352       .  D
C1229      H1231   1.086       .  S
C1230      H1232   1.087       .  S
C1233      C1234   1.347       .  D
C1233      H1235   1.086       .  S
C1234      H1236   1.086       .  S
C1237      C1238   1.343   1_565  D
C1238      H1240   1.087       .  S
C1241      C1242   1.346       .  D
C1241      H1243   1.086       .  S
C1242      H1244   1.087       .  S
C1245      C1246   1.351       .  D
C1245      H1247   1.087       .  S
C1246      H1248   1.086       .  S
C1249      C1250   1.348       .  D
C1249      H1251   1.087   1_565  S
C1253      C1254   1.342       .  D
C1253      H1255   1.087       .  S
C1254      H1256   1.087       .  S
C1257      C1258   1.345       .  D
C1257      H1259   1.087       .  S
C1258      H1260   1.087       .  S
C1261      C1262   1.345       .  D
C1261      H1263   1.087       .  S
C1262      H1264   1.087       .  S
C1265      C1266   1.345       .  D
C1265      H1267   1.086       .  S
C1266      H1268   1.087       .  S
C1269      C1270   1.343       .  D
C1269      H1271   1.086       .  S
C1270      H1272   1.087       .  S
C1273      C1274   1.344       .  D
C1273      H1275   1.087       .  S
C1277      C1278   1.347       .  D
C1277      H1279   1.087       .  S
C1278      H1280   1.087       .  S
C1281      C1282   1.350       .  D
C1281      H1283   1.086       .  S
C1282      H1284   1.087       .  S
C1285      C1286   1.346       .  D
C1285      H1287   1.087       .  S
C1286      H1288   1.086       .  S
C1289      C1290   1.344       .  D
C1289      H1291   1.087       .  S
C1290      H1292   1.086       .  S
C1293      C1294   1.343       .  D
C1293      H1295   1.087       .  S
C1294      H1296   1.087       .  S
