geometry optimzed in LAMMPS
_audit_creation_date              2020-11-30 
_audit_creation_method            'lammps2cif' 
_symmetry_space_group_name_H-M    'P1' 
_symmetry_Int_Tables_number       1 
_symmetry_cell_setting            triclinic 
loop_ 
_symmetry_equiv_pos_as_xyz 
  x,y,z 
_cell_length_a                    64.67630964 
_cell_length_b                    64.60546275509901 
_cell_length_c                    64.53812749607043 
_cell_angle_alpha                 89.97716027696549 
_cell_angle_beta                  89.97513185297935 
_cell_angle_gamma                 89.99705920132864 
loop_ 
_atom_site_label 
_atom_site_type_symbol 
_atom_site_fract_x 
_atom_site_fract_y 
_atom_site_fract_z 
_atom_site_charge 
N1          N  0.74934590  0.90517469  0.40203419    -0.03300
C2          C  0.75988368  0.88700873  0.40224955    -0.00700
C3          C  0.75459476  0.87531357  0.38508727    -0.23600
C4          C  0.74056524  0.88678223  0.37388104    -0.23800
C5          C  0.73745182  0.90491397  0.38476899    -0.00800
H6          H  0.75993513  0.85990288  0.38132104     0.13000
H7          H  0.73360097  0.88246088  0.35926967     0.13000
N8          N  0.74181223  0.90299017  0.58309935    -0.03300
C9          C  0.73110492  0.90418360  0.60110056    -0.00700
C10         C  0.73377527  0.88635625  0.61262419    -0.23600
C11         C  0.74691199  0.87384137  0.60143594    -0.23800
C12         C  0.75165755  0.88452630  0.58352133    -0.00800
H13         H  0.72740093  0.88311893  0.62778782     0.13000
H14         H  0.75261729  0.85876430  0.60598064     0.13000
N15         N  0.74486419  0.09296674  0.40467694    -0.03300
C16         C  0.75529056  0.11117067  0.40520964    -0.00700
C17         C  0.75143943  0.12244933  0.38743713    -0.23600
C18         C  0.73853092  0.11057655  0.37537003    -0.23800
C19         C  0.73470787  0.09256713  0.38629647    -0.00800
H20         H  0.75785211  0.13738752  0.38340346     0.13000
H21         H  0.73324746  0.11425077  0.35989090     0.13000
N22         N  0.74562893  0.09086978  0.58474648    -0.03300
C23         C  0.75682920  0.10850741  0.58423512    -0.00700
C24         C  0.75293012  0.12043286  0.60154751    -0.23600
C25         C  0.73893702  0.10953410  0.61335125    -0.23800
C26         C  0.73472711  0.09148898  0.60262967    -0.00800
H27         H  0.75951309  0.13540391  0.60514434     0.13000
H28         H  0.73273798  0.11409893  0.62824076     0.13000
O29         O  0.76270500  0.97637289  0.47074850    -0.72800
O30         O  0.76340979  0.01914011  0.51576515    -0.73700
O31         O  0.76326722  0.97505702  0.51459364    -0.62400
O32         O  0.76261295  0.02050284  0.47171272    -0.70800
O33         O  0.72837209  0.02071172  0.47276313    -0.70300
O34         O  0.72911963  0.97501720  0.51497150    -0.61600
O35         O  0.72924601  0.01906277  0.51667167    -0.74100
O36         O  0.72852476  0.97645950  0.47109408    -0.72900
Cu37       Cu  0.76417243  0.99778465  0.49317488     1.04600
Cu38       Cu  0.72763419  0.99781959  0.49387224     1.04300
C39         C  0.74553425  0.96933496  0.46395309     0.93400
C40         C  0.74652684  0.02592044  0.52344824     0.92600
C41         C  0.74627863  0.96767497  0.52150597     0.84700
C42         C  0.74532242  0.02800365  0.46569503     0.91000
N43         N  0.91298555  0.75352749  0.40439000    -0.03300
C44         C  0.91286849  0.74264481  0.38649868    -0.00700
C45         C  0.89517131  0.74676037  0.37527457    -0.23600
C46         C  0.88380427  0.76057977  0.38684546    -0.23800
C47         C  0.89504836  0.76433332  0.40464347    -0.00800
H48         H  0.89093129  0.74026497  0.36042029     0.13000
H49         H  0.86869290  0.76668136  0.38304413     0.13000
N50         N  0.90849117  0.75400652  0.59102752    -0.03300
C51         C  0.90782092  0.74279393  0.60872879    -0.00700
C52         C  0.88979531  0.74677154  0.61947092    -0.23600
C53         C  0.87879391  0.76074671  0.60775924    -0.23800
C54         C  0.89065857  0.76504152  0.59043792    -0.00800
H55         H  0.88514756  0.74019082  0.63417418     0.13000
H56         H  0.86351219  0.76662628  0.61121043     0.13000
N57         N  0.09193122  0.74415895  0.40578242    -0.03300
C58         C  0.09153948  0.73262800  0.38828184    -0.00700
C59         C  0.10833855  0.73737697  0.37588763    -0.23600
C60         C  0.11959712  0.75212874  0.38631246    -0.23800
C61         C  0.10903393  0.75609389  0.40448095    -0.00800
H62         H  0.11181017  0.73114043  0.36072356     0.13000
H63         H  0.13405186  0.75895374  0.38134476     0.13000
N64         N  0.09395041  0.74646354  0.59104805    -0.03300
C65         C  0.09284422  0.73791183  0.61019351    -0.00700
C66         C  0.11074388  0.74175647  0.62118985    -0.23600
C67         C  0.12339706  0.75308053  0.60833029    -0.23800
C68         C  0.11262357  0.75599794  0.59006669    -0.00800
H69         H  0.11419642  0.73684932  0.63684436     0.13000
H70         H  0.13873482  0.75871793  0.61193378     0.13000
O71         O  0.97931647  0.73241807  0.52181126    -0.72800
O72         O  0.02355200  0.73128740  0.47781871    -0.73700
O73         O  0.02347280  0.73175112  0.52190731    -0.62400
O74         O  0.97973918  0.73188753  0.47766299    -0.70800
O75         O  0.98032996  0.76607633  0.47722906    -0.70300
O76         O  0.02341702  0.76610219  0.52221148    -0.61600
O77         O  0.02414419  0.76553174  0.47781492    -0.74100
O78         O  0.97945719  0.76663989  0.52137071    -0.72900
Cu79       Cu  0.00150799  0.73066075  0.49986375     1.04600
Cu80       Cu  0.00187471  0.76727526  0.49966822     1.04300
C81         C  0.97217737  0.74963956  0.52844710     0.93400
C82         C  0.03062354  0.74829470  0.47056548     0.92600
C83         C  0.03025591  0.74887003  0.52910742     0.84700
C84         C  0.97320940  0.74899010  0.47020608     0.91000
N85         N  0.25249559  0.90355270  0.40639146    -0.03300
C86         C  0.23972580  0.88708590  0.40459659    -0.00700
C87         C  0.24367069  0.87654917  0.38639150    -0.23600
C88         C  0.25926679  0.88716938  0.37648693    -0.23800
C89         C  0.26444938  0.90360060  0.38917508    -0.00800
H90         H  0.23628826  0.86248676  0.38108903     0.13000
H91         H  0.26571817  0.88362603  0.36142579     0.13000
N92         N  0.25502516  0.89945893  0.58629285    -0.03300
C93         C  0.26443933  0.90010235  0.60498832    -0.00700
C94         C  0.26267558  0.88123935  0.61491248    -0.23600
C95         C  0.25204156  0.86841360  0.60162204    -0.23800
C96         C  0.24772980  0.87999012  0.58413257    -0.00800
H97         H  0.26838186  0.87730530  0.63017210     0.13000
H98         H  0.24757536  0.85253867  0.60455650     0.13000
N99         N  0.25443479  0.08835226  0.40826630    -0.03300
C100        C  0.24674118  0.10777060  0.40867019    -0.00700
C101        C  0.25306775  0.11881044  0.39145851    -0.23600
C102        C  0.26542481  0.10571191  0.38014023    -0.23800
C103        C  0.26611825  0.08727861  0.39094352    -0.00800
H104        H  0.24921199  0.13465702  0.38764361     0.13000
H105        H  0.27306365  0.10919596  0.36563239     0.13000
N106        N  0.25036169  0.08780590  0.59133703    -0.03300
C107        C  0.24052711  0.10635980  0.58993655    -0.00700
C108        C  0.24413985  0.11802582  0.60749978    -0.23600
C109        C  0.25686686  0.10646223  0.62003363    -0.23800
C110        C  0.26063756  0.08813672  0.60966412    -0.00800
H111        H  0.23829316  0.13338521  0.61073288     0.13000
H112        H  0.26253608  0.11084081  0.63518238     0.13000
O113        O  0.26889591  0.97373477  0.47582999    -0.72800
O114        O  0.27046496  0.01674741  0.52115017    -0.73700
O115        O  0.27033965  0.97262317  0.51966483    -0.62400
O116        O  0.26909118  0.01795747  0.47720530    -0.70800
O117        O  0.23480788  0.01805344  0.47776533    -0.70300
O118        O  0.23605412  0.97278110  0.52071849    -0.61600
O119        O  0.23632167  0.01697053  0.52195107    -0.74100
O120        O  0.23467619  0.97396181  0.47678063    -0.72900
Cu121      Cu  0.27087307  0.99528415  0.49842035     1.04600
Cu122      Cu  0.23427528  0.99546751  0.49936486     1.04300
C123        C  0.25153069  0.96695769  0.46918631     0.93400
C124        C  0.25362412  0.02378558  0.52874719     0.92600
C125        C  0.25336538  0.96521152  0.52654127     0.84700
C126        C  0.25187021  0.02529459  0.47088354     0.91000
N127        N  0.41426103  0.90104987  0.25542204    -0.03300
C128        C  0.41431835  0.88242012  0.24593842    -0.00700
C129        C  0.39699289  0.87112575  0.25126490    -0.23600
C130        C  0.38564543  0.88341456  0.26442973    -0.23800
C131        C  0.39654861  0.90166264  0.26654009    -0.00800
H132        H  0.39298131  0.85575050  0.24597761     0.13000
H133        H  0.37081829  0.87971079  0.27126152     0.13000
N134        N  0.59655649  0.90595386  0.23762155    -0.03300
C135        C  0.59569716  0.88778356  0.22716023    -0.00700
C136        C  0.61444799  0.87760063  0.22838558    -0.23600
C137        C  0.62742182  0.89013716  0.23965600    -0.23800
C138        C  0.61616707  0.90757204  0.24486796    -0.00800
H139        H  0.61820630  0.86258654  0.22200196     0.13000
H140        H  0.64325854  0.88674543  0.24384342     0.13000
N141        N  0.40782811  0.08550860  0.24436895    -0.03300
C142        C  0.40618563  0.10301730  0.23281227    -0.00700
C143        C  0.38804050  0.11330870  0.23757772    -0.23600
C144        C  0.37811358  0.10170538  0.25238534    -0.23800
C145        C  0.39071771  0.08493668  0.25648514    -0.00800
H146        H  0.38305373  0.12821721  0.23181513     0.13000
H147        H  0.36350124  0.10532252  0.25971581     0.13000
N148        N  0.59692370  0.08411341  0.23326104    -0.03300
C149        C  0.59542718  0.10244199  0.22326648    -0.00700
C150        C  0.61415225  0.11271617  0.22362341    -0.23600
C151        C  0.62767529  0.10022877  0.23437698    -0.23800
C152        C  0.61661614  0.08289668  0.24021982    -0.00800
H153        H  0.61743300  0.12786671  0.21727020     0.13000
H154        H  0.64357864  0.10374291  0.23820557     0.13000
O155        O  0.52429946  0.01724632  0.22762355    -0.72800
O156        O  0.48005337  0.97395226  0.23028979    -0.73700
O157        O  0.48033243  0.01799510  0.22991101    -0.62400
O158        O  0.52386138  0.97361439  0.22802789    -0.70800
O159        O  0.52574852  0.97392832  0.26229579    -0.70300
O160        O  0.48178406  0.01854135  0.26411716    -0.61600
O161        O  0.48177109  0.97429077  0.26447725    -0.74100
O162        O  0.52590519  0.01820600  0.26195562    -0.72900
Cu163      Cu  0.50204238  0.99573266  0.22782339     1.04600
Cu164      Cu  0.50384267  0.99627315  0.26443429     1.04300
C165        C  0.53218903  0.02446194  0.24425051     0.93400
C166        C  0.47400474  0.96698164  0.24777726     0.92600
C167        C  0.47402242  0.02533262  0.24720725     0.84700
C168        C  0.53174920  0.96673788  0.24482618     0.91000
N169        N  0.41460641  0.73587980  0.89935203    -0.03300
C170        C  0.39725454  0.72416403  0.89912508    -0.00700
C171        C  0.38729506  0.72602053  0.88025930    -0.23600
C172        C  0.39910927  0.73923225  0.86840628    -0.23800
C173        C  0.41569409  0.74507865  0.88055507    -0.00800
H174        H  0.37288664  0.71880358  0.87574605     0.13000
H175        H  0.39596879  0.74406812  0.85266426     0.13000
N176        N  0.59441473  0.74809398  0.90730848    -0.03300
C177        C  0.61155645  0.73610029  0.90659240    -0.00700
C178        C  0.62255662  0.73983410  0.88862853    -0.23600
C179        C  0.61152737  0.75439579  0.87768909    -0.23800
C180        C  0.59438312  0.75931399  0.88953874    -0.00800
H181        H  0.63691441  0.73262162  0.88393277     0.13000
H182        H  0.61520741  0.76014262  0.86237581     0.13000
N183        N  0.40890553  0.74066727  0.09017162    -0.03300
C184        C  0.38951076  0.73297553  0.08806282    -0.00700
C185        C  0.37792066  0.73685506  0.10557904    -0.23600
C186        C  0.39060269  0.74726185  0.11906624    -0.23800
C187        C  0.40960795  0.74922059  0.10940654    -0.00800
H188        H  0.36185974  0.73287663  0.10808998     0.13000
H189        H  0.38613059  0.75345131  0.13397924     0.13000
N190        N  0.59085092  0.74412795  0.09010301    -0.03300
C191        C  0.58986914  0.75507321  0.10789869    -0.00700
C192        C  0.60768608  0.75248195  0.11937996    -0.23600
C193        C  0.62023426  0.73953114  0.10807427    -0.23800
C194        C  0.60945209  0.73454893  0.09027373    -0.00800
H195        H  0.61126201  0.75949942  0.13417315     0.13000
H196        H  0.63573977  0.73469973  0.11210492     0.13000
O197        O  0.52233431  0.76060084  0.97565224    -0.72800
O198        O  0.47727369  0.76044382  0.01870378    -0.73700
O199        O  0.52153797  0.76074029  0.01970452    -0.62400
O200        O  0.47830243  0.75985919  0.97455003    -0.70800
O201        O  0.47873907  0.72565729  0.97527724    -0.70300
O202        O  0.52171117  0.72640801  0.01987264    -0.61600
O203        O  0.47800228  0.72611718  0.01946991    -0.74100
O204        O  0.52270248  0.72639689  0.97586104    -0.72900
Cu205      Cu  0.49982558  0.76161523  0.99715624     1.04600
Cu206      Cu  0.50027673  0.72497919  0.99761250     1.04300
C207        C  0.52970777  0.74353849  0.96886125     0.93400
C208        C  0.47060796  0.74329103  0.02595540     0.92600
C209        C  0.52836983  0.74360261  0.02692065     0.84700
C210        C  0.47173877  0.74251690  0.96764574     0.91000
N211        N  0.41342987  0.89727253  0.73674245    -0.03300
C212        C  0.41540194  0.87785748  0.74444294    -0.00700
C213        C  0.39853169  0.86592727  0.73904333    -0.23600
C214        C  0.38552554  0.87857407  0.72785947    -0.23800
C215        C  0.39502961  0.89769868  0.72674099    -0.00800
H216        H  0.39565486  0.85002069  0.74343882     0.13000
H217        H  0.37049575  0.87447306  0.72175192     0.13000
N218        N  0.59022790  0.90373250  0.73972949    -0.03300
C219        C  0.59056554  0.88550645  0.75007580    -0.00700
C220        C  0.60823638  0.87451240  0.74528173    -0.23600
C221        C  0.61928378  0.88649757  0.73157792    -0.23800
C222        C  0.60779105  0.90423961  0.72826845    -0.00800
H223        H  0.61251988  0.85936741  0.75101764     0.13000
H224        H  0.63427727  0.88284862  0.72509475     0.13000
N225        N  0.40407797  0.08528941  0.75228866    -0.03300
C226        C  0.40483195  0.10392839  0.76183800    -0.00700
C227        C  0.38724666  0.11523937  0.75735762    -0.23600
C228        C  0.37541392  0.10318086  0.74434046    -0.23800
C229        C  0.38628919  0.08502356  0.74126398    -0.00800
H230        H  0.38374270  0.13080058  0.76246520     0.13000
H231        H  0.36068977  0.10734425  0.73755997     0.13000
N232        N  0.58716114  0.08914568  0.74399071    -0.03300
C233        C  0.58650785  0.10733522  0.75442159    -0.00700
C234        C  0.60434591  0.11858363  0.75103635    -0.23600
C235        C  0.61670824  0.10665906  0.73848317    -0.23800
C236        C  0.60581756  0.08871638  0.73444655    -0.00800
H237        H  0.60805755  0.13367361  0.75728413     0.13000
H238        H  0.63207876  0.11050684  0.73308698     0.13000
O239        O  0.47671722  0.97310696  0.72851414    -0.72800
O240        O  0.51852229  0.01875929  0.72957414    -0.73700
O241        O  0.52051693  0.97476727  0.72833418    -0.62400
O242        O  0.47482909  0.01705749  0.73018218    -0.70800
O243        O  0.47531925  0.01623759  0.76447908    -0.70300
O244        O  0.52034814  0.97319596  0.76257525    -0.61600
O245        O  0.51957132  0.01717956  0.76392337    -0.74100
O246        O  0.47619331  0.97209576  0.76288595    -0.72900
Cu247      Cu  0.49761048  0.99596422  0.72799399     1.04600
Cu248      Cu  0.49784704  0.99465137  0.76469085     1.04300
C249        C  0.46978905  0.96541994  0.74536864     0.93400
C250        C  0.52583603  0.02501059  0.74682755     0.92600
C251        C  0.52769156  0.96721281  0.74520013     0.84700
C252        C  0.46803021  0.02358216  0.74758801     0.91000
N253        N  0.40269407  0.23889417  0.91170295    -0.03300
C254        C  0.38392764  0.24818596  0.91128587    -0.00700
C255        C  0.37355681  0.24343707  0.89320589    -0.23600
C256        C  0.38647672  0.23081913  0.88193835    -0.23800
C257        C  0.40427661  0.22851088  0.89352452    -0.00800
H258        H  0.35842801  0.24888892  0.88857339     0.13000
H259        H  0.38350256  0.22452702  0.86669097     0.13000
N260        N  0.59115627  0.24499311  0.90699459    -0.03300
C261        C  0.60824520  0.25712300  0.90703082    -0.00700
C262        C  0.61929116  0.25444952  0.88892420    -0.23600
C263        C  0.60844822  0.24034368  0.87719299    -0.23800
C264        C  0.59127015  0.23463138  0.88866407    -0.00800
H265        H  0.63356525  0.26207864  0.88464945     0.13000
H266        H  0.61232334  0.23545337  0.86164556     0.13000
N267        N  0.40769514  0.25272600  0.09150696    -0.03300
C268        C  0.38987579  0.26373883  0.09127149    -0.00700
C269        C  0.37927154  0.26098073  0.10967833    -0.23600
C270        C  0.39125829  0.24821258  0.12181019    -0.23800
C271        C  0.40862584  0.24349507  0.11029076    -0.00800
H272        H  0.36434232  0.26733952  0.11376434     0.13000
H273        H  0.38773176  0.24296264  0.13733789     0.13000
N274        N  0.59147202  0.24834523  0.09152684    -0.03300
C275        C  0.58999896  0.23943652  0.11046252    -0.00700
C276        C  0.60755575  0.24330627  0.12200974    -0.23600
C277        C  0.62031521  0.25516729  0.10974769    -0.23800
C278        C  0.61001155  0.25801138  0.09122767    -0.00800
H279        H  0.61069088  0.23809438  0.13763252     0.13000
H280        H  0.63545208  0.26101828  0.11382571     0.13000
O281        O  0.52084210  0.23118487  0.97708521    -0.72800
O282        O  0.47787225  0.23141170  0.02213664    -0.73700
O283        O  0.47681410  0.23013649  0.97838071    -0.62400
O284        O  0.52198160  0.23241905  0.02124144    -0.70800
O285        O  0.52130145  0.26659437  0.02025487    -0.70300
O286        O  0.47595115  0.26428755  0.97742307    -0.61600
O287        O  0.47727362  0.26566321  0.02120817    -0.74100
O288        O  0.52000163  0.26534415  0.97611648    -0.72900
Cu289      Cu  0.49945726  0.23011458  0.99974107     1.04600
Cu290      Cu  0.49864989  0.26664742  0.99870689     1.04300
C291        C  0.52721860  0.24825093  0.96931866     0.93400
C292        C  0.47047928  0.24859054  0.02854310     0.92600
C293        C  0.46892767  0.24685236  0.97128067     0.84700
C294        C  0.52875192  0.24985810  0.02773626     0.91000
N295        N  0.24309737  0.40412556  0.90830890    -0.03300
C296        C  0.23269572  0.40445620  0.89011053    -0.00700
C297        C  0.23563218  0.38618354  0.87940775    -0.23600
C298        C  0.24855468  0.37421105  0.89138568    -0.23800
C299        C  0.25288782  0.38565732  0.90891877    -0.00800
H300        H  0.22939971  0.38220144  0.86437198     0.13000
H301        H  0.25426873  0.35890808  0.88769017     0.13000
N302        N  0.24995411  0.59144549  0.89897148    -0.03300
C303        C  0.23884338  0.59093952  0.88125071    -0.00700
C304        C  0.24322533  0.60816778  0.86928885    -0.23600
C305        C  0.25717002  0.61989598  0.88039926    -0.23800
C306        C  0.26091590  0.60926201  0.89857968    -0.00800
H307        H  0.23704320  0.61179899  0.85414519     0.13000
H308        H  0.26348595  0.63475511  0.87594542     0.13000
N309        N  0.24966578  0.41048158  0.08575884    -0.03300
C310        C  0.26115639  0.39296467  0.08681600    -0.00700
C311        C  0.25559591  0.38156502  0.10409812    -0.23600
C312        C  0.24033765  0.39255987  0.11407478    -0.23800
C313        C  0.23685349  0.41007373  0.10232991    -0.00800
H314        H  0.26142725  0.36652931  0.10859857     0.13000
H315        H  0.23274188  0.38832350  0.12840411     0.13000
N316        N  0.23785980  0.59786415  0.08165488    -0.03300
C317        C  0.24719751  0.61657246  0.08043556    -0.00700
C318        C  0.24379571  0.62784391  0.09829006    -0.23600
C319        C  0.23208720  0.61548985  0.11111550    -0.23800
C320        C  0.22875790  0.59721609  0.10052920    -0.00800
H321        H  0.24986031  0.64303111  0.10189265     0.13000
H322        H  0.22707884  0.61915703  0.12668632     0.13000
O323        O  0.26317384  0.48115756  0.01635715    -0.72800
O324        O  0.26311214  0.52441726  0.97183047    -0.73700
O325        O  0.26202515  0.52523100  0.01592748    -0.62400
O326        O  0.26400712  0.48020243  0.97254957    -0.70800
O327        O  0.22985677  0.47953960  0.97225669    -0.70300
O328        O  0.22776298  0.52487132  0.01452600    -0.61600
O329        O  0.22893801  0.52351494  0.97077686    -0.74100
O330        O  0.22898259  0.48074711  0.01594857    -0.72900
Cu331      Cu  0.26428112  0.50282599  0.99417811     1.04600
Cu332      Cu  0.22772329  0.50216304  0.99335030     1.04300
C333        C  0.24607804  0.47382166  0.02304133     0.93400
C334        C  0.24604641  0.53091845  0.96424658     0.92600
C335        C  0.24451980  0.53217295  0.02199667     0.84700
C336        C  0.24713292  0.47238680  0.96583298     0.91000
N337        N  0.90418119  0.40654700  0.73966090    -0.03300
C338        C  0.88516281  0.40737253  0.74842326    -0.00700
C339        C  0.87453531  0.38917526  0.74475104    -0.23600
C340        C  0.88746460  0.37675383  0.73325781    -0.23800
C341        C  0.90552269  0.38779824  0.73042826    -0.00800
H342        H  0.85919300  0.38523638  0.75016165     0.13000
H343        H  0.88420148  0.36125069  0.72782489     0.13000
N344        N  0.90207137  0.58785866  0.73962387    -0.03300
C345        C  0.90189885  0.60568905  0.72850778    -0.00700
C346        C  0.88340442  0.61602633  0.73150633    -0.23600
C347        C  0.87170407  0.60396949  0.74462524    -0.23800
C348        C  0.88355658  0.58684055  0.74934399    -0.00800
H349        H  0.87909942  0.63098635  0.72532670     0.13000
H350        H  0.85629069  0.60735369  0.75020383     0.13000
N351        N  0.08903323  0.40715102  0.74681437    -0.03300
C352        C  0.10648232  0.40677268  0.75841056    -0.00700
C353        C  0.11840467  0.38981423  0.75304737    -0.23600
C354        C  0.10773106  0.37934977  0.73782718    -0.23800
C355        C  0.08984622  0.39045872  0.73422721    -0.00800
H356        H  0.13344033  0.38573405  0.75914591     0.13000
H357        H  0.11233154  0.36502798  0.73045986     0.13000
N358        N  0.08876781  0.58916454  0.74701651    -0.03300
C359        C  0.10702375  0.58894017  0.75732848    -0.00700
C360        C  0.11739697  0.60743763  0.75457912    -0.23600
C361        C  0.10487871  0.61970719  0.74252291    -0.23800
C362        C  0.08745997  0.60812986  0.73824341    -0.00800
H363        H  0.13233640  0.61159985  0.76086375     0.13000
H364        H  0.10798201  0.63542156  0.73761776     0.13000
O365        O  0.01769662  0.52032099  0.76245686    -0.72800
O366        O  0.97453381  0.47555753  0.76115125    -0.73700
O367        O  0.01851161  0.47637120  0.76176104    -0.62400
O368        O  0.97377903  0.51973153  0.76181086    -0.70800
O369        O  0.97479770  0.52043477  0.72756520    -0.70300
O370        O  0.01871100  0.47655313  0.72746329    -0.61600
O371        O  0.97471410  0.47636148  0.72686402    -0.74100
O372        O  0.01888703  0.52024160  0.72807529    -0.72900
Cu373      Cu  0.99609641  0.49796820  0.76298777     1.04600
Cu374      Cu  0.99676024  0.49842156  0.72630744     1.04300
C375        C  0.02520284  0.52718952  0.74548505     0.93400
C376        C  0.96780205  0.46878823  0.74382169     0.92600
C377        C  0.02584863  0.46973652  0.74459525     0.84700
C378        C  0.96727175  0.52710998  0.74463890     0.91000
N379        N  0.75316368  0.40347626  0.90747829    -0.03300
C380        C  0.76395576  0.40342919  0.88944534    -0.00700
C381        C  0.76082795  0.38496473  0.87903050    -0.23600
C382        C  0.74789474  0.37319193  0.89119496    -0.23800
C383        C  0.74342117  0.38497130  0.90845463    -0.00800
H384        H  0.76721532  0.38058000  0.86416491     0.13000
H385        H  0.74241626  0.35771808  0.88788306     0.13000
N386        N  0.75070011  0.58818540  0.90644230    -0.03300
C387        C  0.76019998  0.58770290  0.88776268    -0.00700
C388        C  0.75536912  0.60515839  0.87637607    -0.23600
C389        C  0.74216730  0.61673190  0.88842810    -0.23800
C390        C  0.73947761  0.60580606  0.90662523    -0.00800
H391        H  0.76042883  0.60876272  0.86080377     0.13000
H392        H  0.73513490  0.63137077  0.88433278     0.13000
N393        N  0.75668346  0.40059556  0.08744844    -0.03300
C394        C  0.76767787  0.40106449  0.10532236    -0.00700
C395        C  0.76571617  0.38248256  0.11576065    -0.23600
C396        C  0.75266418  0.37031344  0.10408793    -0.23800
C397        C  0.74727033  0.38190172  0.08693393    -0.00800
H398        H  0.77264345  0.37841651  0.13046920     0.13000
H399        H  0.74760098  0.35476988  0.10772811     0.13000
N400        N  0.74976664  0.58778625  0.09183179    -0.03300
C401        C  0.74203295  0.60713570  0.08949849    -0.00700
C402        C  0.74712258  0.61945120  0.10618893    -0.23600
C403        C  0.75841595  0.60728513  0.11940974    -0.23800
C404        C  0.75967027  0.58791557  0.11037285    -0.00800
H405        H  0.74339942  0.63565073  0.10826407     0.13000
H406        H  0.76558875  0.61229127  0.13369155     0.13000
O407        O  0.76743047  0.51841941  0.02066198    -0.72800
O408        O  0.76608762  0.47451400  0.97657460    -0.73700
O409        O  0.76611030  0.51838733  0.97661529    -0.62400
O410        O  0.76727422  0.47425199  0.02049532    -0.70800
O411        O  0.73313004  0.47370841  0.02109268    -0.70300
O412        O  0.73196927  0.51859370  0.97789415    -0.61600
O413        O  0.73192819  0.47451621  0.97705119    -0.74100
O414        O  0.73318209  0.51777686  0.02226389    -0.72900
Cu415      Cu  0.76788270  0.49640600  0.99858173     1.04600
Cu416      Cu  0.73135454  0.49618873  0.99962754     1.04300
C417        C  0.75051517  0.52502665  0.02845456     0.93400
C418        C  0.74890862  0.46754083  0.96969659     0.92600
C419        C  0.74881171  0.52541759  0.97010313     0.84700
C420        C  0.75041069  0.46672735  0.02762161     0.91000
N421        N  0.90863901  0.39809675  0.24176659    -0.03300
C422        C  0.91034088  0.37919652  0.25061770    -0.00700
C423        C  0.89259274  0.36777695  0.24721940    -0.23600
C424        C  0.87936645  0.38031132  0.23612475    -0.23800
C425        C  0.88960504  0.39885817  0.23322010    -0.00800
H426        H  0.88945813  0.35222894  0.25260810     0.13000
H427        H  0.86391387  0.37644621  0.23100122     0.13000
N428        N  0.90141826  0.58670425  0.25510246    -0.03300
C429        C  0.90331561  0.60543247  0.26429057    -0.00700
C430        C  0.88562166  0.61702781  0.26147776    -0.23600
C431        C  0.87229431  0.60499979  0.25005948    -0.23800
C432        C  0.88231258  0.58642054  0.24644933    -0.00800
H433        H  0.88295008  0.63272432  0.26667867     0.13000
H434        H  0.85731636  0.60969329  0.24427653     0.13000
N435        N  0.08661120  0.40446235  0.23692511    -0.03300
C436        C  0.08671962  0.38566271  0.24620163    -0.00700
C437        C  0.10419097  0.37467323  0.24072324    -0.23600
C438        C  0.11540510  0.38725445  0.22769295    -0.23800
C439        C  0.10435252  0.40544658  0.22574657    -0.00800
H440        H  0.10836491  0.35926043  0.24578204     0.13000
H441        H  0.13025251  0.38374775  0.22080324     0.13000
N442        N  0.08833386  0.58563484  0.24878829    -0.03300
C443        C  0.09006968  0.60149555  0.26234636    -0.00700
C444        C  0.10830789  0.61212191  0.25915161    -0.23600
C445        C  0.11831420  0.60224415  0.24316974    -0.23800
C446        C  0.10562430  0.58618533  0.23690572    -0.00800
H447        H  0.11346501  0.62592392  0.26711255     0.13000
H448        H  0.13340047  0.60614418  0.23706296     0.13000
O449        O  0.01641611  0.47513281  0.22927348    -0.72800
O450        O  0.97181027  0.51841424  0.23136267    -0.73700
O451        O  0.01582282  0.51896346  0.23185592    -0.62400
O452        O  0.97256904  0.47418030  0.22886828    -0.70800
O453        O  0.97231876  0.47234548  0.26316517    -0.70300
O454        O  0.01563448  0.51695189  0.26606173    -0.61600
O455        O  0.97134097  0.51626268  0.26565024    -0.74100
O456        O  0.01636502  0.47295591  0.26345309    -0.72900
Cu457      Cu  0.99412485  0.49676494  0.22917455     1.04600
Cu458      Cu  0.99387672  0.49458890  0.26578020     1.04300
C459        C  0.02356293  0.46715961  0.24593365     0.93400
C460        C  0.96458192  0.52426264  0.24883134     0.92600
C461        C  0.02288837  0.52482908  0.24940687     0.84700
C462        C  0.96568858  0.46611388  0.24560359     0.91000
N463        N  0.91472828  0.23831290  0.40065299    -0.03300
C464        C  0.91571887  0.24602460  0.38125515    -0.00700
C465        C  0.89845535  0.24039690  0.36999442    -0.23600
C466        C  0.88639669  0.22862448  0.38306304    -0.23800
C467        C  0.89689857  0.22745559  0.40166772    -0.00800
H468        H  0.89496947  0.24454282  0.35412920     0.13000
H469        H  0.87153886  0.22180965  0.37948005     0.13000
N470        N  0.91570456  0.23773765  0.58816099    -0.03300
C471        C  0.91524369  0.24973687  0.60536593    -0.00700
C472        C  0.89809699  0.24504693  0.61725875    -0.23600
C473        C  0.88743113  0.22986296  0.60678815    -0.23800
C474        C  0.89853732  0.22569273  0.58895312    -0.00800
H475        H  0.89369447  0.25211855  0.63180274     0.13000
H476        H  0.87272059  0.22322954  0.61123677     0.13000
N477        N  0.09827368  0.24764703  0.40250466    -0.03300
C478        C  0.09742161  0.25758696  0.38398668    -0.00700
C479        C  0.11435471  0.25221970  0.37201860    -0.23600
C480        C  0.12606722  0.23873214  0.38363401    -0.23800
C481        C  0.11571936  0.23605074  0.40215411    -0.00800
H482        H  0.11754704  0.25705627  0.35628906     0.13000
H483        H  0.14050723  0.23162080  0.37904659     0.13000
N484        N  0.09228787  0.24528527  0.58966254    -0.03300
C485        C  0.09136833  0.25407174  0.60862587    -0.00700
C486        C  0.10923307  0.25017644  0.61967247    -0.23600
C487        C  0.12159235  0.23832492  0.60704807    -0.23800
C488        C  0.11069361  0.23539417  0.58888442    -0.00800
H489        H  0.11292942  0.25557210  0.63510351     0.13000
H490        H  0.13691577  0.23261675  0.61061227     0.13000
O491        O  0.98304362  0.26015047  0.47077144    -0.72800
O492        O  0.02596242  0.26187870  0.51609301    -0.73700
O493        O  0.02713612  0.26143047  0.47181334    -0.62400
O494        O  0.98205099  0.26059602  0.51497065    -0.70800
O495        O  0.98261475  0.22638137  0.51476967    -0.70300
O496        O  0.02845550  0.22726670  0.47292581    -0.61600
O497        O  0.02609961  0.22755650  0.51703172    -0.74100
O498        O  0.98481055  0.22587881  0.47075644    -0.72900
Cu499      Cu  0.00451911  0.26223407  0.49337267     1.04600
Cu500      Cu  0.00553790  0.22561874  0.49385274     1.04300
C501        C  0.97735360  0.24266072  0.46346248     0.93400
C502        C  0.03238244  0.24492551  0.52404513     0.92600
C503        C  0.03492584  0.24437682  0.46542812     0.84700
C504        C  0.97527465  0.24333590  0.52186296     0.91000
O505        O  0.02481996  0.32012288  0.35001777    -0.72800
O506        O  0.97963922  0.34824332  0.31728911    -0.73700
O507        O  0.98104551  0.31758408  0.34962884    -0.62400
O508        O  0.02336237  0.35058761  0.31771753    -0.70800
O509        O  0.02489872  0.32542545  0.29439642    -0.70300
O510        O  0.98269152  0.29323992  0.32559045    -0.61600
O511        O  0.98173847  0.32346488  0.29369491    -0.74100
O512        O  0.02586496  0.29499091  0.32657884    -0.72900
Cu513      Cu  0.00215390  0.33502802  0.33454088     1.04600
Cu514      Cu  0.00386066  0.30845134  0.30930042     1.04300
C515        C  0.03204734  0.30284816  0.34363566     0.93400
C516        C  0.97404718  0.34056592  0.29989496     0.92600
C517        C  0.97543891  0.29990750  0.34273072     0.84700
C518        C  0.03041687  0.34331801  0.30070449     0.91000
O519        O  0.86128923  0.16393774  0.51710731    -0.72800
O520        O  0.82631685  0.13805586  0.47216445    -0.73700
O521        O  0.86033369  0.16666836  0.47315861    -0.62400
O522        O  0.82738810  0.13552246  0.51603927    -0.70800
O523        O  0.80588288  0.16218567  0.51807106    -0.70300
O524        O  0.83765396  0.19219256  0.47481489    -0.61600
O525        O  0.80396015  0.16394731  0.47490794    -0.74100
O526        O  0.83944321  0.19041352  0.51812343    -0.72900
Cu527      Cu  0.84465833  0.15008769  0.49452826     1.04600
Cu528      Cu  0.82103694  0.17805923  0.49654795     1.04300
C529        C  0.85598576  0.18159415  0.52429782     0.93400
C530        C  0.80923417  0.14662665  0.46701980     0.92600
C531        C  0.85426267  0.18462042  0.46737345     0.84700
C532        C  0.81119524  0.14398212  0.52359773     0.91000
O533        O  0.14629294  0.17156949  0.47390428    -0.72800
O534        O  0.17488639  0.14017908  0.51965966    -0.73700
O535        O  0.14457299  0.17250545  0.51784244    -0.62400
O536        O  0.17682308  0.13955739  0.47567845    -0.70800
O537        O  0.20081429  0.16395693  0.47601852    -0.70300
O538        O  0.17010754  0.19519657  0.51873555    -0.61600
O539        O  0.20020029  0.16333728  0.51933784    -0.74100
O540        O  0.17067352  0.19565692  0.47540105    -0.72900
Cu541      Cu  0.15972385  0.15507783  0.49675364     1.04600
Cu542      Cu  0.18625736  0.18030418  0.49739916     1.04300
C543        C  0.15375190  0.18886350  0.46783146     0.93400
C544        C  0.19230694  0.14664269  0.52640361     0.92600
C545        C  0.15230115  0.18937689  0.52478289     0.84700
C546        C  0.19414270  0.14664788  0.46927784     0.91000
O547        O  0.83116856  0.51534357  0.19749307    -0.72800
O548        O  0.80430918  0.47236277  0.16222994    -0.73700
O549        O  0.83346436  0.47186009  0.19494257    -0.62400
O550        O  0.80216122  0.51561961  0.16478453    -0.70800
O551        O  0.82717133  0.51832752  0.14158879    -0.70300
O552        O  0.85914011  0.47478263  0.17251608    -0.61600
O553        O  0.82999484  0.47438730  0.13949809    -0.74100
O554        O  0.85642892  0.51856328  0.17468609    -0.72900
Cu555      Cu  0.81693230  0.49371418  0.18062200     1.04600
Cu556      Cu  0.84410388  0.49662529  0.15625491     1.04300
C557        C  0.84810274  0.52382551  0.19184972     0.93400
C558        C  0.81282396  0.46654212  0.14537061     0.92600
C559        C  0.85134593  0.46632172  0.18861241     0.84700
C560        C  0.80943207  0.52384396  0.14832293     0.91000
O561        O  0.16990383  0.47981348  0.13268272    -0.72800
O562        O  0.13776532  0.52194955  0.16521386    -0.73700
O563        O  0.16970212  0.52365420  0.13481426    -0.62400
O564        O  0.13820063  0.47816527  0.16327666    -0.70800
O565        O  0.16214309  0.47707452  0.18782850    -0.70300
O566        O  0.19309972  0.52311478  0.15981163    -0.61600
O567        O  0.16126206  0.52041644  0.19026852    -0.74100
O568        O  0.19393209  0.47959627  0.15723543    -0.72900
Cu569      Cu  0.15307117  0.50094299  0.14811079     1.04600
Cu570      Cu  0.17844752  0.50002009  0.17462478     1.04300
C571        C  0.18720450  0.47338404  0.13971124     0.93400
C572        C  0.14420586  0.52732041  0.18311970     0.92600
C573        C  0.18650589  0.53051282  0.14269724     0.84700
C574        C  0.14512901  0.47053957  0.18017466     0.91000
O575        O  0.64306840  0.32302435  0.02038072    -0.72800
O576        O  0.67450818  0.35386275  0.97657693    -0.73700
O577        O  0.64215793  0.32337614  0.97648242    -0.62400
O578        O  0.67543181  0.35316023  0.02044017    -0.70800
O579        O  0.69880093  0.32811297  0.01916092    -0.70300
O580        O  0.66554249  0.29827254  0.97646233    -0.61600
O581        O  0.69769257  0.32861952  0.97581690    -0.74100
O582        O  0.66667338  0.29825001  0.01989136    -0.72900
Cu583      Cu  0.65794040  0.33925127  0.99847040     1.04600
Cu584      Cu  0.68294860  0.31247086  0.99776688     1.04300
C585        C  0.64981702  0.30569281  0.02704866     0.93400
C586        C  0.69136740  0.34630221  0.96959347     0.92600
C587        C  0.64840106  0.30569598  0.97009246     0.84700
C588        C  0.69260835  0.34539599  0.02646280     0.91000
O589        O  0.80012260  0.51845384  0.82959962    -0.72800
O590        O  0.82878912  0.47458758  0.79668171    -0.73700
O591        O  0.79952560  0.47506554  0.82996687    -0.62400
O592        O  0.82929856  0.51818041  0.79660665    -0.70800
O593        O  0.85487915  0.51855985  0.81939632    -0.70300
O594        O  0.82568015  0.47442698  0.85222243    -0.61600
O595        O  0.85483606  0.47477031  0.81883456    -0.74100
O596        O  0.82563095  0.51833151  0.85253180    -0.72900
Cu597      Cu  0.81355978  0.49657033  0.81243815     1.04600
Cu598      Cu  0.84114971  0.49649933  0.83656324     1.04300
C599        C  0.80812395  0.52514795  0.84639163     0.93400
C600        C  0.84660942  0.46799846  0.80216311     0.92600
C601        C  0.80781944  0.46816728  0.84654084     0.84700
C602        C  0.84682534  0.52513238  0.80257407     0.91000
O603        O  0.02304240  0.30051556  0.66362222    -0.72800
O604        O  0.97711741  0.33086731  0.69128247    -0.73700
O605        O  0.98000247  0.29849879  0.66128269    -0.62400
O606        O  0.02035642  0.33268588  0.69344837    -0.70800
O607        O  0.02160708  0.35566946  0.66796504    -0.70300
O608        O  0.97932272  0.32225802  0.63643952    -0.61600
O609        O  0.97786450  0.35476066  0.66674691    -0.74100
O610        O  0.02294590  0.32314526  0.63787507    -0.72900
Cu611      Cu  0.00010272  0.31487918  0.67826904     1.04600
Cu612      Cu  0.00043301  0.33981614  0.65136454     1.04300
C613        C  0.02988596  0.30654439  0.64606714     0.93400
C614        C  0.97050990  0.34794528  0.68381098     0.92600
C615        C  0.97368065  0.30469019  0.64359835     0.84700
C616        C  0.02722276  0.34963918  0.68597624     0.91000
O617        O  0.13767762  0.47641665  0.82591072    -0.72800
O618        O  0.17046506  0.52044896  0.85539123    -0.73700
O619        O  0.13974321  0.52026347  0.82355248    -0.62400
O620        O  0.16863237  0.47643516  0.85740515    -0.70800
O621        O  0.19275581  0.47420898  0.83304232    -0.70300
O622        O  0.16487390  0.51824434  0.80046169    -0.61600
O623        O  0.19536596  0.51741252  0.83189122    -0.74100
O624        O  0.16203275  0.47502305  0.80167095    -0.72900
Cu625      Cu  0.15324691  0.49846902  0.84146993     1.04600
Cu626      Cu  0.17957132  0.49613305  0.81598159     1.04300
C627        C  0.14455402  0.46923390  0.80881271     0.93400
C628        C  0.18823882  0.52557376  0.84841761     0.92600
C629        C  0.14776177  0.52603612  0.80635205     0.84700
C630        C  0.18536755  0.46849618  0.85045249     0.91000
O631        O  0.33203172  0.30168247  0.02057403    -0.72800
O632        O  0.29937250  0.33115777  0.97718415    -0.73700
O633        O  0.32912840  0.29870238  0.97743845    -0.62400
O634        O  0.30207023  0.33411872  0.02025524    -0.70800
O635        O  0.32714316  0.35748453  0.01763306    -0.70300
O636        O  0.35406730  0.32200662  0.97395196    -0.61600
O637        O  0.32419929  0.35460405  0.97407988    -0.74100
O638        O  0.35710143  0.32501099  0.01761552    -0.72900
Cu639      Cu  0.31480455  0.31562233  0.99898514     1.04600
Cu640      Cu  0.34155072  0.34059104  0.99569082     1.04300
C641        C  0.34985277  0.30846716  0.02565630     0.93400
C642        C  0.30638112  0.34775871  0.96903432     0.92600
C643        C  0.34601962  0.30459981  0.96907815     0.84700
C644        C  0.30993247  0.35151712  0.02530563     0.91000
O645        O  0.51874867  0.19320327  0.83443445    -0.72800
O646        O  0.47437208  0.16193524  0.80417309    -0.73700
O647        O  0.47549205  0.19174656  0.83657178    -0.62400
O648        O  0.51771040  0.16351134  0.80185638    -0.70800
O649        O  0.51987175  0.13756319  0.82402972    -0.70300
O650        O  0.47763898  0.16650620  0.85978763    -0.61600
O651        O  0.47620595  0.13659618  0.82714570    -0.74100
O652        O  0.52163425  0.16742708  0.85699590    -0.72900
Cu653      Cu  0.49654204  0.17844187  0.81850069     1.04600
Cu654      Cu  0.49893676  0.15113735  0.84286055     1.04300
C655        C  0.52697124  0.18539957  0.85063906     0.93400
C656        C  0.46834910  0.14421251  0.81065494     0.92600
C657        C  0.46988746  0.18368128  0.85371094     0.84700
C658        C  0.52509903  0.14590877  0.80682191     0.91000
O659        O  0.52008389  0.16324315  0.19505945    -0.72800
O660        O  0.47613805  0.19580229  0.16582117    -0.73700
O661        O  0.47649835  0.16303635  0.19551030    -0.62400
O662        O  0.51962176  0.19599974  0.16559469    -0.70800
O663        O  0.51987083  0.17272464  0.14036869    -0.70300
O664        O  0.47544368  0.14059192  0.16949290    -0.61600
O665        O  0.47626862  0.17337954  0.13992359    -0.74100
O666        O  0.51925955  0.14006494  0.16986045    -0.72900
Cu667      Cu  0.49804412  0.18030722  0.18139436     1.04600
Cu668      Cu  0.49768121  0.15587095  0.15404353     1.04300
C669        C  0.52659162  0.14634374  0.18715311     0.93400
C670        C  0.46958784  0.19012060  0.14800902     0.92600
C671        C  0.46934723  0.14652261  0.18735246     0.84700
C672        C  0.52659364  0.18955960  0.14823511     0.91000
O673        O  0.32353130  0.01681494  0.64283544    -0.72800
O674        O  0.35537744  0.97218506  0.67202423    -0.73700
O675        O  0.32347533  0.97294862  0.64146950    -0.62400
O676        O  0.35526214  0.01603852  0.67349726    -0.70800
O677        O  0.33123741  0.01481474  0.69800585    -0.70300
O678        O  0.30004274  0.97182257  0.66638146    -0.61600
O679        O  0.33177472  0.97123052  0.69675412    -0.74100
O680        O  0.29935730  0.01540180  0.66721253    -0.72900
Cu681      Cu  0.34023646  0.99453174  0.65657693     1.04600
Cu682      Cu  0.31478978  0.99332379  0.68293238     1.04300
C683        C  0.30624221  0.02288037  0.65021940     0.93400
C684        C  0.34880868  0.96471680  0.68916030     0.92600
C685        C  0.30657672  0.96566719  0.64879315     0.84700
C686        C  0.34836414  0.02184679  0.69112513     0.91000
O687        O  0.48308252  0.79343499  0.82611707    -0.72800
O688        O  0.52656133  0.82571217  0.79664925    -0.73700
O689        O  0.52598727  0.79600578  0.82938342    -0.62400
O690        O  0.48354369  0.82318996  0.79361688    -0.70800
O691        O  0.47981262  0.84841361  0.81653471    -0.70300
O692        O  0.52346895  0.82166672  0.85213143    -0.61600
O693        O  0.52338219  0.85147143  0.81905084    -0.74100
O694        O  0.47989804  0.81823572  0.84953227    -0.72900
Cu695      Cu  0.50489769  0.80875859  0.81069070     1.04600
Cu696      Cu  0.50150847  0.83586050  0.83516579     1.04300
C697        C  0.47498894  0.80026390  0.84281174     0.93400
C698        C  0.53149387  0.84389194  0.80264313     0.92600
C699        C  0.53109468  0.80428765  0.84658338     0.84700
C700        C  0.47539448  0.84035786  0.79898868     0.91000
O701        O  0.32446469  0.63922753  0.97222303    -0.72800
O702        O  0.35374446  0.67076122  0.01738319    -0.73700
O703        O  0.31962376  0.64253415  0.01570634    -0.62400
O704        O  0.35841200  0.66716303  0.97374730    -0.70800
O705        O  0.33683167  0.69364870  0.97010846    -0.70300
O706        O  0.29810738  0.66880450  0.01118810    -0.61600
O707        O  0.33188039  0.69666937  0.01314862    -0.74100
O708        O  0.30309114  0.66576889  0.96819056    -0.72900
Cu709      Cu  0.33985417  0.65397213  0.99496334     1.04600
Cu710      Cu  0.31678058  0.68210903  0.99052289     1.04300
C711        C  0.30898769  0.64758080  0.96319468     0.93400
C712        C  0.34757433  0.68895224  0.02225509     0.92600
C713        C  0.30245282  0.65152359  0.01967987     0.84700
C714        C  0.35368981  0.68449894  0.96549124     0.91000
O715        O  0.47912952  0.82641872  0.19711898    -0.72800
O716        O  0.52168672  0.79673402  0.16432284    -0.73700
O717        O  0.52230428  0.82833502  0.19505308    -0.62400
O718        O  0.47872050  0.79486379  0.16629159    -0.70800
O719        O  0.47632793  0.81870838  0.14185022    -0.70300
O720        O  0.52054607  0.85196487  0.17014202    -0.61600
O721        O  0.51964383  0.82037547  0.13941452    -0.74100
O722        O  0.47693824  0.85054373  0.17278205    -0.72900
Cu723      Cu  0.50051062  0.81079415  0.18155740     1.04600
Cu724      Cu  0.49824215  0.83627895  0.15520239     1.04300
C725        C  0.47162356  0.84343200  0.19046530     0.93400
C726        C  0.52688763  0.80340101  0.14647141     0.92600
C727        C  0.52820310  0.84550128  0.18720904     0.84700
C728        C  0.47107104  0.80108535  0.14911449     0.91000
O729        O  0.36173996  0.01778145  0.32709679    -0.72800
O730        O  0.33101556  0.97394913  0.35914762    -0.73700
O731        O  0.36294057  0.97407860  0.32886306    -0.62400
O732        O  0.32964925  0.01758729  0.35760515    -0.70800
O733        O  0.30660310  0.01656435  0.33231372    -0.70300
O734        O  0.33898960  0.97219465  0.30434610    -0.61600
O735        O  0.30710009  0.97333303  0.33447879    -0.74100
O736        O  0.33847488  0.01536566  0.30191931    -0.72900
Cu737      Cu  0.34719380  0.99593941  0.34406784     1.04600
Cu738      Cu  0.32199431  0.99433258  0.31741398     1.04300
C739        C  0.35520547  0.02293151  0.30912684     0.93400
C740        C  0.31390301  0.96715418  0.35197022     0.92600
C741        C  0.35620070  0.96627514  0.31200997     0.84700
C742        C  0.31256024  0.02367759  0.34974989     0.91000
O743        O  0.16718292  0.79651901  0.47285435    -0.72800
O744        O  0.20073189  0.82650284  0.51474523    -0.73700
O745        O  0.16985747  0.79541205  0.51604695    -0.62400
O746        O  0.19803612  0.82763594  0.47165595    -0.70800
O747        O  0.17402991  0.85211930  0.47340482    -0.70300
O748        O  0.14550822  0.81924300  0.51834999    -0.61600
O749        O  0.17684737  0.85084915  0.51708687    -0.74100
O750        O  0.14289169  0.82075757  0.47447480    -0.72900
Cu751      Cu  0.18472384  0.81071259  0.49373450     1.04600
Cu752      Cu  0.15890349  0.83660946  0.49591441     1.04300
C753        C  0.14965394  0.80362219  0.46729746     0.93400
C754        C  0.19449226  0.84365178  0.52232593     0.92600
C755        C  0.15306852  0.80185110  0.52413758     0.84700
C756        C  0.19100666  0.84519740  0.46600176     0.91000
O757        O  0.01981310  0.63606100  0.32628711    -0.72800
O758        O  0.97704632  0.66979818  0.35628753    -0.73700
O759        O  0.97608822  0.63851575  0.32501124    -0.62400
O760        O  0.02058763  0.66725719  0.35739362    -0.70800
O761        O  0.02207727  0.69149415  0.33298741    -0.70300
O762        O  0.97791676  0.66268456  0.30080466    -0.61600
O763        O  0.97904370  0.69379244  0.33180992    -0.74100
O764        O  0.02127784  0.66027005  0.30191399    -0.72900
Cu765      Cu  0.99830411  0.65202055  0.34209580     1.04600
Cu766      Cu  0.00016636  0.67785743  0.31602702     1.04300
C767        C  0.02699766  0.64278708  0.30912237     0.93400
C768        C  0.97162233  0.68735811  0.34897599     0.92600
C769        C  0.97007436  0.64589576  0.30762852     0.84700
C770        C  0.02789129  0.68424801  0.35043565     0.91000
O771        O  0.83515584  0.80240868  0.51675994    -0.72800
O772        O  0.80337447  0.83305289  0.47311687    -0.73700
O773        O  0.83632214  0.80373253  0.47335468    -0.62400
O774        O  0.80219432  0.83157390  0.51654027    -0.70800
O775        O  0.82449501  0.85760835  0.51792521    -0.70300
O776        O  0.85935117  0.82912373  0.47475499    -0.61600
O777        O  0.82637281  0.85857562  0.47391082    -0.74100
O778        O  0.85753519  0.82838450  0.51871027    -0.72900
Cu779      Cu  0.81849387  0.81682868  0.49488610     1.04600
Cu780      Cu  0.84276188  0.84435080  0.49637183     1.04300
C781        C  0.85145433  0.81046252  0.52447460     0.93400
C782        C  0.80970965  0.85068295  0.46680125     0.92600
C783        C  0.85336977  0.81174815  0.46742489     0.84700
C784        C  0.80769577  0.84906007  0.52390648     0.91000
O785        O  0.64666789  0.97607619  0.31412711    -0.72800
O786        O  0.67608701  0.02048859  0.34660187    -0.73700
O787        O  0.64780828  0.01955464  0.31212247    -0.62400
O788        O  0.67498910  0.97650657  0.34834793    -0.70800
O789        O  0.70138884  0.97568900  0.32641450    -0.70300
O790        O  0.67414633  0.01754321  0.29029057    -0.61600
O791        O  0.70202565  0.01905025  0.32441304    -0.74100
O792        O  0.67317822  0.97442653  0.29257065    -0.72900
Cu793      Cu  0.66046484  0.99822829  0.33112524     1.04600
Cu794      Cu  0.68858329  0.99662951  0.30773926     1.04300
C795        C  0.65501661  0.96861197  0.29782396     0.93400
C796        C  0.69397189  0.02666899  0.34078080     0.92600
C797        C  0.65636808  0.02464299  0.29497852     0.84700
C798        C  0.69280167  0.96965608  0.34314625     0.91000
O799        O  0.97613683  0.69843766  0.66587678    -0.72800
O800        O  0.01801938  0.66494291  0.69635779    -0.73700
O801        O  0.01957154  0.69785400  0.66751644    -0.62400
O802        O  0.97470080  0.66524650  0.69505829    -0.70800
O803        O  0.97510760  0.64258466  0.66923172    -0.70300
O804        O  0.02048031  0.67534441  0.64174622    -0.61600
O805        O  0.01891668  0.64202839  0.67092761    -0.74100
O806        O  0.97657436  0.67576040  0.64006222    -0.72900
Cu807      Cu  0.99706104  0.68237801  0.68205765     1.04600
Cu808      Cu  0.99779275  0.65812000  0.65455332     1.04300
C809        C  0.96999026  0.69263799  0.64801075     0.93400
C810        C  0.02502251  0.64809969  0.68874211     0.92600
C811        C  0.02707810  0.69199961  0.65020549     0.84700
C812        C  0.96809464  0.64858293  0.68674970     0.91000
O813        O  0.66427652  0.97649728  0.69039005    -0.72800
O814        O  0.69595115  0.01944308  0.65899126    -0.73700
O815        O  0.66605556  0.01989215  0.69139797    -0.62400
O816        O  0.69421348  0.97605745  0.65801561    -0.70800
O817        O  0.66936725  0.97782968  0.63439620    -0.70300
O818        O  0.64055593  0.02104341  0.66863245    -0.61600
O819        O  0.67039471  0.02162468  0.63611723    -0.74100
O820        O  0.63951226  0.97744212  0.66656645    -0.72900
Cu821      Cu  0.68100914  0.99794116  0.67549637     1.04600
Cu822      Cu  0.65408912  0.99957775  0.65058864     1.04300
C823        C  0.64684973  0.97030695  0.68347180     0.93400
C824        C  0.68823788  0.02714349  0.64250442     0.92600
C825        C  0.64854366  0.02701961  0.68574555     0.84700
C826        C  0.68633491  0.97005938  0.64089479     0.91000
O827        O  0.64354355  0.66997800  0.97687071    -0.72800
O828        O  0.67707617  0.64042759  0.02036105    -0.73700
O829        O  0.64531921  0.67133682  0.02075141    -0.62400
O830        O  0.67506078  0.63903018  0.97677556    -0.70800
O831        O  0.69904379  0.66358600  0.97544280    -0.70300
O832        O  0.66936410  0.69556161  0.01894691    -0.61600
O833        O  0.70065236  0.66511547  0.01851651    -0.74100
O834        O  0.66765524  0.69442685  0.97566595    -0.72900
Cu835      Cu  0.65935177  0.65431200  0.99875610     1.04600
Cu836      Cu  0.68494680  0.68050030  0.99705694     1.04300
C837        C  0.65029371  0.68716968  0.96977255     0.93400
C838        C  0.69452959  0.64791320  0.02594699     0.92600
C839        C  0.65252464  0.68880245  0.02665795     0.84700
C840        C  0.69214392  0.64599750  0.96971445     0.91000
C841        C  0.07249764  0.28724633  0.60977872    -0.20100
C842        C  0.07429500  0.26675134  0.61654412    -0.06700
C843        C  0.06135109  0.25927778  0.63236908     0.14200
C844        C  0.04688708  0.27262137  0.64131323    -0.20200
C845        C  0.04529187  0.29346445  0.63514524    -0.06700
C846        C  0.05825009  0.30084669  0.61898064     0.14200
C847        C  0.05786459  0.32305094  0.61181148    -0.23500
H848        H  0.08281515  0.29278694  0.59774562     0.15500
H849        H  0.03685823  0.26666896  0.65337995     0.15500
C850        C  0.06289781  0.23724923  0.63995427    -0.23500
H851        H  0.06986404  0.32613996  0.59988363     0.05700
H852        H  0.06086691  0.33352144  0.62511799     0.08900
H853        H  0.04264442  0.32670230  0.60477690     0.08900
H854        H  0.07846145  0.23439785  0.64659363     0.08900
H855        H  0.06025207  0.22639584  0.62691104     0.08900
H856        H  0.05128631  0.23385044  0.65217416     0.05700
C857        C  0.12307957  0.19367425  0.54957384    -0.20100
C858        C  0.14068947  0.20220715  0.53998313    -0.06700
C859        C  0.14687834  0.22264622  0.54543156     0.14200
C860        C  0.13597648  0.23326585  0.56082759    -0.20200
C861        C  0.11910955  0.22430123  0.57089827    -0.06700
C862        C  0.11235891  0.20436555  0.56513991     0.14200
C863        C  0.09462799  0.19351850  0.57571360    -0.23500
H864        H  0.11802633  0.17820328  0.54551098     0.15500
H865        H  0.14099286  0.24858382  0.56551098     0.15500
C866        C  0.16492727  0.23364886  0.53546880    -0.23500
H867        H  0.08225019  0.19031078  0.56423845     0.05700
H868        H  0.08787581  0.20265481  0.58855192     0.08900
H869        H  0.10010643  0.17862691  0.58232464     0.08900
H870        H  0.16273129  0.23436804  0.51843127     0.08900
H871        H  0.17958126  0.22556496  0.53927787     0.08900
H872        H  0.16652185  0.24981995  0.54109155     0.05700
C873        C  0.05875371  0.23452282  0.57570322    -0.20100
C874        C  0.07686309  0.24623670  0.57360247    -0.06700
C875        C  0.07981223  0.25833235  0.55561548     0.14200
C876        C  0.06495700  0.25776587  0.53977215    -0.20200
C877        C  0.04722040  0.24538267  0.54147785    -0.06700
C878        C  0.04389949  0.23385289  0.55983915     0.14200
C879        C  0.02449960  0.22129592  0.56302589    -0.23500
H880        H  0.05646132  0.22556995  0.58969112     0.15500
H881        H  0.06737310  0.26688571  0.52586846     0.15500
C882        C  0.09828324  0.27222054  0.55286622    -0.23500
H883        H  0.02400487  0.21418642  0.57869351     0.05700
H884        H  0.02373437  0.20858438  0.55150388     0.08900
H885        H  0.01070139  0.23139655  0.56134902     0.08900
H886        H  0.10738223  0.26705245  0.53922189     0.08900
H887        H  0.10856285  0.27233507  0.56659292     0.08900
H888        H  0.09298165  0.28835681  0.55024440     0.05700
C889        C  0.06702082  0.30136191  0.35897866    -0.20100
C890        C  0.04782662  0.29185544  0.35593381    -0.06700
C891        C  0.04429565  0.27181010  0.36398897     0.14200
C892        C  0.06043731  0.26139055  0.37420678    -0.20200
C893        C  0.08005478  0.27044787  0.37623407    -0.06700
C894        C  0.08329234  0.29082939  0.36879081     0.14200
C895        C  0.10384177  0.30161911  0.37107560    -0.23500
H896        H  0.06951268  0.31682545  0.35293559     0.15500
H897        H  0.05799263  0.24577421  0.37984057     0.15500
C898        C  0.02350005  0.26147427  0.36190691    -0.23500
H899        H  0.10327507  0.31772147  0.36506452     0.05700
H900        H  0.11598479  0.29332149  0.36227268     0.08900
H901        H  0.10827306  0.30237586  0.38763620     0.08900
H902        H  0.01970437  0.25916863  0.34530176     0.08900
H903        H  0.01140643  0.27127990  0.36918353     0.08900
H904        H  0.02323151  0.24609304  0.36960299     0.05700
C905        C  0.13002713  0.23354650  0.43761995    -0.20100
C906        C  0.12360864  0.22341436  0.41955581    -0.06700
C907        C  0.12602665  0.20175061  0.41788323     0.14200
C908        C  0.13536759  0.19077660  0.43417069    -0.20200
C909        C  0.14281965  0.20104215  0.45180657    -0.06700
C910        C  0.13978109  0.22267088  0.45372986     0.14200
C911        C  0.14636715  0.23430162  0.47287031    -0.23500
H912        H  0.12794858  0.25015725  0.43883107     0.15500
H913        H  0.13745218  0.17417819  0.43285329     0.15500
C914        C  0.11868304  0.19016553  0.39901026    -0.23500
H915        H  0.14169913  0.25083442  0.47219629     0.05700
H916        H  0.16343253  0.23383061  0.47450034     0.08900
H917        H  0.13904415  0.22728180  0.48676385     0.08900
H918        H  0.12726770  0.19543801  0.38509993     0.08900
H919        H  0.10191124  0.19289037  0.39666033     0.08900
H920        H  0.12114672  0.17322455  0.40059786     0.05700
C921        C  0.07217700  0.22853401  0.42202524    -0.20100
C922        C  0.08263479  0.24712352  0.41839727    -0.06700
C923        C  0.07788775  0.26460634  0.43055911     0.14200
C924        C  0.06212903  0.26328417  0.44548868    -0.20200
C925        C  0.05148531  0.24461547  0.44925891    -0.06700
C926        C  0.05686209  0.22688120  0.43735300     0.14200
C927        C  0.04655744  0.20614184  0.44026386    -0.23500
H928        H  0.07608118  0.21520925  0.41264568     0.15500
H929        H  0.05854765  0.27689803  0.45462082     0.15500
C930        C  0.08971652  0.28456074  0.42870940    -0.23500
H931        H  0.05233076  0.19446052  0.42903719     0.05700
H932        H  0.02963107  0.20761981  0.43791397     0.08900
H933        H  0.04984817  0.20010304  0.45602231     0.08900
H934        H  0.10293564  0.28331856  0.41789455     0.08900
H935        H  0.09609479  0.28887129  0.44408677     0.08900
H936        H  0.07923516  0.29704192  0.42327792     0.05700
C937        C  0.95096716  0.25777903  0.61642444    -0.20100
C938        C  0.93113070  0.26501839  0.61155644    -0.06700
C939        C  0.92613984  0.28603587  0.61522642     0.14200
C940        C  0.94060971  0.29889487  0.62506757    -0.20200
C941        C  0.95986429  0.29122365  0.63136402    -0.06700
C942        C  0.96541779  0.27063366  0.62634825     0.14200
C943        C  0.98659741  0.26221973  0.63130441    -0.23500
H944        H  0.95481618  0.24174780  0.61333904     0.15500
H945        H  0.93657166  0.31483578  0.62842787     0.15500
C946        C  0.90573818  0.29539112  0.60894945    -0.23500
H947        H  0.98857931  0.24615039  0.62551710     0.05700
H948        H  0.98908052  0.26201402  0.64830795     0.08900
H949        H  0.99859621  0.27204349  0.62389023     0.08900
H950        H  0.89572448  0.28442261  0.60038014     0.08900
H951        H  0.90856023  0.30886023  0.59863312     0.08900
H952        H  0.89732133  0.30074819  0.62295257     0.05700
C953        C  0.87387614  0.18184975  0.55830966    -0.20100
C954        C  0.86897447  0.19214791  0.53983379    -0.06700
C955        C  0.87572036  0.21275377  0.53685327     0.14200
C956        C  0.88641384  0.22287532  0.55278824    -0.20200
C957        C  0.89031308  0.21301172  0.57171797    -0.06700
C958        C  0.88431640  0.19208283  0.57440209     0.14200
C959        C  0.88882504  0.18003383  0.59389495    -0.23500
H960        H  0.86892851  0.16595881  0.56047868     0.15500
H961        H  0.89089911  0.23891400  0.55080452     0.15500
C962        C  0.87169692  0.22415080  0.51688040    -0.23500
H963        H  0.89788456  0.16597910  0.58993124     0.05700
H964        H  0.87407283  0.17523134  0.60126785     0.08900
H965        H  0.89796023  0.18895026  0.60534170     0.08900
H966        H  0.85483311  0.22633500  0.51468352     0.08900
H967        H  0.87812756  0.21522069  0.50366330     0.08900
H968        H  0.87899197  0.23971552  0.51681808     0.05700
C969        C  0.93248302  0.25760695  0.56052102    -0.20100
C970        C  0.93047396  0.23900629  0.57147891    -0.06700
C971        C  0.94317449  0.22207296  0.56624241     0.14200
C972        C  0.95726292  0.22399416  0.54983473    -0.20200
C973        C  0.95939079  0.24259387  0.53864691    -0.06700
C974        C  0.94675966  0.25972430  0.54421715     0.14200
C975        C  0.94786999  0.28021257  0.53309558    -0.23500
H976        H  0.92268933  0.27052723  0.56481363     0.15500
H977        H  0.96700941  0.21088962  0.54604322     0.15500
C978        C  0.94260102  0.20225403  0.57850422    -0.23500
H979        H  0.96330904  0.28732931  0.53542794     0.05700
H980        H  0.93619961  0.29134924  0.53903585     0.08900
H981        H  0.94488574  0.27794579  0.51630754     0.08900
H982        H  0.92753084  0.19447451  0.57649965     0.08900
H983        H  0.94516165  0.20559983  0.59517526     0.08900
H984        H  0.95473315  0.19122833  0.57335062     0.05700
C985        C  0.93336323  0.27982501  0.37934812    -0.20100
C986        C  0.93249425  0.25906622  0.37318686    -0.06700
C987        C  0.94652357  0.25154500  0.35832288     0.14200
C988        C  0.96047861  0.26526947  0.34915808    -0.20200
C989        C  0.96090806  0.28641783  0.35443778    -0.06700
C990        C  0.94741991  0.29368754  0.37020196     0.14200
C991        C  0.94714423  0.31596413  0.37710247    -0.23500
H992        H  0.92252071  0.28532979  0.39091867     0.15500
H993        H  0.97109201  0.25925062  0.33763234     0.15500
C994        C  0.94726926  0.22914073  0.35180196    -0.23500
H995        H  0.93513386  0.31880638  0.38908134     0.05700
H996        H  0.94374121  0.32619655  0.36370548     0.08900
H997        H  0.96230698  0.32013804  0.38397640     0.08900
H998        H  0.93607457  0.21927564  0.36026489     0.08900
H999        H  0.96296509  0.22285156  0.35480965     0.08900
H1000       H  0.94392173  0.22793550  0.33497360     0.05700
C1001       C  0.87380748  0.22774075  0.43183234    -0.20100
C1002       C  0.88857949  0.21712940  0.42019442    -0.06700
C1003       C  0.89296155  0.19626617  0.42467370     0.14200
C1004       C  0.88193901  0.18625427  0.44051897    -0.20200
C1005       C  0.86641418  0.19658302  0.45182605    -0.06700
C1006       C  0.86275757  0.21792721  0.44770182     0.14200
C1007       C  0.84726775  0.23072788  0.45960477    -0.23500
H1008       H  0.87037818  0.24370185  0.42795944     0.15500
H1009       H  0.88508289  0.17007308  0.44361204     0.15500
C1010       C  0.90873243  0.18439827  0.41228219    -0.23500
H1011       H  0.84757212  0.24725543  0.45485556     0.05700
H1012       H  0.85085087  0.23016930  0.47639109     0.08900
H1013       H  0.83137143  0.22495767  0.45671671     0.08900
H1014       H  0.92412826  0.19171148  0.41402606     0.08900
H1015       H  0.90433000  0.18436456  0.39565667     0.08900
H1016       H  0.90998767  0.16807506  0.41753768     0.05700
C1017       C  0.94836674  0.22791522  0.41428974    -0.20100
C1018       C  0.93045938  0.23993245  0.41628572    -0.06700
C1019       C  0.92849544  0.25368746  0.43313197     0.14200
C1020       C  0.94414974  0.25444621  0.44817856    -0.20200
C1021       C  0.96174951  0.24178239  0.44670129    -0.06700
C1022       C  0.96401194  0.22854371  0.42935535     0.14200
C1023       C  0.98312605  0.21556145  0.42623898    -0.23500
H1024       H  0.94993918  0.21790684  0.40093562     0.15500
H1025       H  0.94247977  0.26482595  0.46125761     0.15500
C1026       C  0.91029999  0.26801376  0.43538943    -0.23500
H1027       H  0.98275406  0.20714423  0.41124066     0.05700
H1028       H  0.98443480  0.20383683  0.43872864     0.08900
H1029       H  0.99701559  0.22566382  0.42628257     0.08900
H1030       H  0.89940557  0.26693718  0.42219008     0.08900
H1031       H  0.91584862  0.28425642  0.43617470     0.08900
H1032       H  0.90181155  0.26429053  0.44987636     0.05700
C1033       C  0.05930229  0.62218575  0.30782562    -0.20100
C1034       C  0.04207860  0.63034266  0.29742281    -0.06700
C1035       C  0.03975947  0.62686130  0.27591885     0.14200
C1036       C  0.05530355  0.61638008  0.26513817    -0.20200
C1037       C  0.07308334  0.60940790  0.27527276    -0.06700
C1038       C  0.07498796  0.61184203  0.29691215     0.14200
C1039       C  0.09341406  0.60344997  0.30844263    -0.23500
H1040       H  0.06081565  0.62453987  0.32438706     0.15500
H1041       H  0.05394596  0.61430628  0.24853017     0.15500
C1042       C  0.02077051  0.63374297  0.26430785    -0.23500
H1043       H  0.09210388  0.60617653  0.32538499     0.05700
H1044       H  0.10777051  0.61107391  0.30295357     0.08900
H1045       H  0.09463074  0.58650798  0.30583268     0.08900
H1046       H  0.01962791  0.65086940  0.26435088     0.08900
H1047       H  0.00685140  0.62691722  0.27170423     0.08900
H1048       H  0.02109061  0.62863512  0.24787510     0.05700
C1049       C  0.11445084  0.55009491  0.22811812    -0.20100
C1050       C  0.11190099  0.57056290  0.22143701    -0.06700
C1051       C  0.11813775  0.57622245  0.20115708     0.14200
C1052       C  0.12787952  0.56146837  0.18853765    -0.20200
C1053       C  0.13180327  0.54147234  0.19588393    -0.06700
C1054       C  0.12446606  0.53547483  0.21560406     0.14200
C1055       C  0.12719769  0.51367218  0.22345863    -0.23500
H1056       H  0.10963488  0.54582033  0.24362769     0.15500
H1057       H  0.13321692  0.56577178  0.17319969     0.15500
C1058       C  0.11462689  0.59770958  0.19269467    -0.23500
H1059       H  0.11985778  0.51145758  0.23886411     0.05700
H1060       H  0.14388143  0.51000304  0.22502273     0.08900
H1061       H  0.11995376  0.50263090  0.21245806     0.08900
H1062       H  0.12325159  0.60932987  0.20187139     0.08900
H1063       H  0.09791868  0.60147110  0.19302835     0.08900
H1064       H  0.11994121  0.59906774  0.17638079     0.05700
C1065       C  0.06953095  0.55756199  0.26594538    -0.20100
C1066       C  0.07197394  0.57044328  0.24864927    -0.06700
C1067       C  0.05785144  0.56885614  0.23208914     0.14200
C1068       C  0.04212501  0.55389584  0.23287432    -0.20200
C1069       C  0.03964233  0.54074408  0.25010415    -0.06700
C1070       C  0.05360019  0.54277285  0.26699072     0.14200
C1071       C  0.05232051  0.52921261  0.28596574    -0.23500
H1072       H  0.08032644  0.55911814  0.27868348     0.15500
H1073       H  0.03143798  0.55282147  0.21998236     0.15500
C1074       C  0.05845107  0.58322633  0.21377068    -0.23500
H1075       H  0.06505938  0.53245282  0.29704096     0.05700
H1076       H  0.05343853  0.51268096  0.28141262     0.08900
H1077       H  0.03754847  0.53205514  0.29424273     0.08900
H1078       H  0.07028021  0.59547072  0.21544398     0.08900
H1079       H  0.04325445  0.59106243  0.21214409     0.08900
H1080       H  0.06169813  0.57425317  0.19946716     0.05700
C1081       C  0.07357788  0.37867489  0.28153008    -0.20100
C1082       C  0.07060045  0.37736168  0.26005536    -0.06700
C1083       C  0.05414534  0.36549661  0.25213908     0.14200
C1084       C  0.04119579  0.35487322  0.26589676    -0.20200
C1085       C  0.04426082  0.35582730  0.28742353    -0.06700
C1086       C  0.06054811  0.36808096  0.29538818     0.14200
C1087       C  0.06500251  0.36909687  0.31827432    -0.23500
H1088       H  0.08659008  0.38746864  0.28741159     0.15500
H1089       H  0.02871266  0.34552829  0.25976103     0.15500
C1090       C  0.05055798  0.36359974  0.22916883    -0.23500
H1091       H  0.07902536  0.37844646  0.32160208     0.05700
H1092       H  0.06759197  0.35324871  0.32442726     0.08900
H1093       H  0.05183035  0.37638570  0.32652193     0.08900
H1094       H  0.06445796  0.35698520  0.22154949     0.08900
H1095       H  0.04729765  0.37909752  0.22260384     0.08900
H1096       H  0.03718225  0.35341896  0.22561391     0.05700
C1097       C  0.13292431  0.45504437  0.21314527    -0.20100
C1098       C  0.13325700  0.45440076  0.19138084    -0.06700
C1099       C  0.12281985  0.43815681  0.18102821     0.14200
C1100       C  0.11259484  0.42293878  0.19273799    -0.20200
C1101       C  0.11231059  0.42365138  0.21444990    -0.06700
C1102       C  0.12262360  0.43989395  0.22480566     0.14200
C1103       C  0.12386427  0.44126449  0.24809257    -0.23500
H1104       H  0.14099112  0.46736391  0.22118688     0.15500
H1105       H  0.10528351  0.41002193  0.18492324     0.15500
C1106       C  0.12334277  0.43607080  0.15776853    -0.23500
H1107       H  0.11692325  0.45608501  0.25333259     0.05700
H1108       H  0.14031783  0.44079960  0.25298100     0.08900
H1109       H  0.11569118  0.42848441  0.25607822     0.08900
H1110       H  0.13962285  0.43545107  0.15231557     0.08900
H1111       H  0.11531340  0.44937887  0.15047177     0.08900
H1112       H  0.11546053  0.42174453  0.15247273     0.05700
C1113       C  0.06813693  0.42978813  0.25830564    -0.20100
C1114       C  0.07096979  0.42021944  0.23903664    -0.06700
C1115       C  0.05811964  0.42587604  0.22231090     0.14200
C1116       C  0.04305237  0.44121561  0.22516881    -0.20200
C1117       C  0.04004251  0.45096849  0.24445297    -0.06700
C1118       C  0.05289824  0.44506361  0.26131703     0.14200
C1119       C  0.05110753  0.45488490  0.28241823    -0.23500
H1120       H  0.07805716  0.42525985  0.27104746     0.15500
H1121       H  0.03328390  0.44527313  0.21213894     0.15500
C1122       C  0.05941352  0.41562950  0.20140076    -0.23500
H1123       H  0.06299802  0.44890816  0.29330328     0.05700
H1124       H  0.03574884  0.45139514  0.28924772     0.08900
H1125       H  0.05326801  0.47188376  0.28113650     0.08900
H1126       H  0.07074702  0.40279862  0.20095807     0.08900
H1127       H  0.06380817  0.42727018  0.18953070     0.08900
H1128       H  0.04409000  0.40906076  0.19727926     0.05700
C1129       C  0.93440708  0.62738430  0.26407921    -0.20100
C1130       C  0.92185948  0.61342339  0.27483165    -0.06700
C1131       C  0.92531126  0.60985746  0.29606209     0.14200
C1132       C  0.94137195  0.62038930  0.30613039    -0.20200
C1133       C  0.95379756  0.63487663  0.29560974    -0.06700
C1134       C  0.95023207  0.63833235  0.27412958     0.14200
C1135       C  0.96262004  0.65359764  0.26153329    -0.23500
H1136       H  0.93127065  0.63025570  0.24782397     0.15500
H1137       H  0.94381380  0.61766655  0.32251704     0.15500
C1138       C  0.91168294  0.59541954  0.30824831    -0.23500
H1139       H  0.95810657  0.65343893  0.24492806     0.05700
H1140       H  0.97927345  0.64973831  0.26234412     0.08900
H1141       H  0.95999135  0.66953264  0.26737691     0.08900
H1142       H  0.91314671  0.57956874  0.30193554     0.08900
H1143       H  0.89532415  0.60052856  0.30721342     0.08900
H1144       H  0.91607931  0.59492179  0.32487518     0.05700
C1145       C  0.88499200  0.56396287  0.21544094    -0.20100
C1146       C  0.87393959  0.56975048  0.23317787    -0.06700
C1147       C  0.85468020  0.56037865  0.23736753     0.14200
C1148       C  0.84694264  0.54550661  0.22362489    -0.20200
C1149       C  0.85776877  0.53972022  0.20558489    -0.06700
C1150       C  0.87724275  0.54912235  0.20154846     0.14200
C1151       C  0.89009496  0.54387311  0.18277866    -0.23500
H1152       H  0.89960355  0.57149595  0.21217777     0.15500
H1153       H  0.83212969  0.53846771  0.22705265     0.15500
C1154       C  0.84227800  0.56565761  0.25646867    -0.23500
H1155       H  0.90485742  0.55265860  0.18245082     0.05700
H1156       H  0.88147944  0.54782924  0.16844128     0.08900
H1157       H  0.89405663  0.52715374  0.18290586     0.08900
H1158       H  0.83714894  0.58200438  0.25593649     0.08900
H1159       H  0.85169879  0.56307648  0.27057225     0.08900
H1160       H  0.82817871  0.55593429  0.25780617     0.05700
C1161       C  0.93433070  0.57432400  0.24093107    -0.20100
C1162       C  0.91709773  0.57089987  0.25365351    -0.06700
C1163       C  0.91529507  0.55192097  0.26439041     0.14200
C1164       C  0.93095834  0.53698988  0.26243581    -0.20200
C1165       C  0.94823717  0.54036162  0.24970001    -0.06700
C1166       C  0.94981328  0.55921093  0.23859846     0.14200
C1167       C  0.96802669  0.56372657  0.22474418    -0.23500
H1168       H  0.93546795  0.58885323  0.23261773     0.15500
H1169       H  0.92963175  0.52254765  0.27090389     0.15500
C1170       C  0.89724327  0.54710700  0.27828716    -0.23500
H1171       H  0.96717930  0.57954153  0.21803899     0.05700
H1172       H  0.96838251  0.55256990  0.21168200     0.08900
H1173       H  0.98261165  0.56252925  0.23374199     0.08900
H1174       H  0.88845870  0.53380990  0.27187563     0.08900
H1175       H  0.88660882  0.56040418  0.28004488     0.08900
H1176       H  0.90293945  0.54296367  0.29397796     0.05700
C1177       C  0.94362418  0.36070954  0.25334386    -0.20100
C1178       C  0.92787792  0.37178191  0.26318500    -0.06700
C1179       C  0.92770346  0.37334059  0.28497433     0.14200
C1180       C  0.94322400  0.36343410  0.29653179    -0.20200
C1181       C  0.95864027  0.35156441  0.28680325    -0.06700
C1182       C  0.95905342  0.35058909  0.26480515     0.14200
C1183       C  0.97580392  0.33927204  0.25315058    -0.23500
H1184       H  0.94347482  0.35945735  0.23659622     0.15500
H1185       H  0.94291546  0.36442545  0.31329318     0.15500
C1186       C  0.91083897  0.38501840  0.29603705    -0.23500
H1187       H  0.97442561  0.34150401  0.23613927     0.05700
H1188       H  0.97478612  0.32240084  0.25617427     0.08900
H1189       H  0.99116749  0.34519256  0.25796043     0.08900
H1190       H  0.89556338  0.37811451  0.29233711     0.08900
H1191       H  0.91096899  0.40143957  0.29108350     0.08900
H1192       H  0.91289849  0.38458713  0.31311412     0.05700
C1193       C  0.88866179  0.42270907  0.20327990    -0.20100
C1194       C  0.88076979  0.41702467  0.22263153    -0.06700
C1195       C  0.86434210  0.42832049  0.23138496     0.14200
C1196       C  0.85550469  0.44457837  0.22008177    -0.20200
C1197       C  0.86271686  0.44992957  0.20018228    -0.06700
C1198       C  0.87993987  0.43904305  0.19188566     0.14200
C1199       C  0.88906105  0.44399903  0.17096188    -0.23500
H1200       H  0.90142888  0.41395533  0.19684260     0.15500
H1201       H  0.84272177  0.45304450  0.22686307     0.15500
C1202       C  0.85627141  0.42338765  0.25274456    -0.23500
H1203       H  0.90214458  0.43356945  0.16703857     0.05700
H1204       H  0.89513343  0.46006946  0.17089714     0.08900
H1205       H  0.87713690  0.44213397  0.15873454     0.08900
H1206       H  0.86898563  0.42462975  0.26421995     0.08900
H1207       H  0.84989322  0.40745459  0.25309850     0.08900
H1208       H  0.84378080  0.43418833  0.25749793     0.05700
C1209       C  0.92000272  0.43069311  0.25716952    -0.20100
C1210       C  0.92318358  0.41488647  0.24270100    -0.06700
C1211       C  0.93965113  0.41646719  0.22845562     0.14200
C1212       C  0.95307726  0.43350752  0.22957036    -0.20200
C1213       C  0.95041767  0.44901960  0.24460658    -0.06700
C1214       C  0.93342668  0.44772202  0.25840195     0.14200
C1215       C  0.92885213  0.46456338  0.27389812    -0.23500
H1216       H  0.90681614  0.42970380  0.26745164     0.15500
H1217       H  0.96588099  0.43453435  0.21876502     0.15500
C1218       C  0.94317095  0.40063410  0.21172017    -0.23500
H1219       H  0.91419530  0.46160967  0.28238012     0.05700
H1220       H  0.92734350  0.47965514  0.26579196     0.08900
H1221       H  0.94141021  0.46547746  0.28555544     0.08900
H1222       H  0.94244342  0.40828744  0.19632702     0.08900
H1223       H  0.93148088  0.38809069  0.21191607     0.08900
H1224       H  0.95868259  0.39354280  0.21369180     0.05700
C1225       C  0.73978830  0.63073261  0.05989900    -0.20100
C1226       C  0.73053264  0.61497710  0.07147180    -0.06700
C1227       C  0.70982285  0.60941010  0.06752435     0.14200
C1228       C  0.69881184  0.61997335  0.05210588    -0.20200
C1229       C  0.70767127  0.63654494  0.04106496    -0.06700
C1230       C  0.72870915  0.64177334  0.04489583     0.14200
C1231       C  0.73980012  0.65907862  0.03377333    -0.23500
H1232       H  0.75566885  0.63495225  0.06326506     0.15500
H1233       H  0.68282828  0.61572701  0.04938315     0.15500
C1234       C  0.69846197  0.59329973  0.07998219    -0.23500
H1235       H  0.75630819  0.66015882  0.03839530     0.05700
H1236       H  0.73251081  0.67415512  0.03758440     0.08900
H1237       H  0.73942700  0.65643689  0.01682459     0.08900
H1238       H  0.70790377  0.58675900  0.09265464     0.08900
H1239       H  0.69357699  0.58046087  0.06965592     0.08900
H1240       H  0.68452416  0.60035628  0.08713294     0.05700
C1241       C  0.78813582  0.56228130  0.10836300    -0.20100
C1242       C  0.77148692  0.57061378  0.11945772    -0.06700
C1243       C  0.76724046  0.56340148  0.13966598     0.14200
C1244       C  0.77986778  0.54812240  0.14829615    -0.20200
C1245       C  0.79691361  0.53991513  0.13752827    -0.06700
C1246       C  0.80104050  0.54711117  0.11712810     0.14200
C1247       C  0.81883616  0.53907517  0.10437461    -0.23500
H1248       H  0.79142631  0.56814450  0.09297307     0.15500
H1249       H  0.77648292  0.54282222  0.16386083     0.15500
C1250       C  0.74931017  0.57151891  0.15229243    -0.23500
H1251       H  0.81919043  0.54612127  0.08867194     0.05700
H1252       H  0.81741138  0.52206428  0.10240974     0.08900
H1253       H  0.83370464  0.54289962  0.11205319     0.08900
H1254       H  0.73464627  0.56975918  0.14360244     0.08900
H1255       H  0.75167968  0.58803574  0.15619099     0.08900
H1256       H  0.74759049  0.56304111  0.16716898     0.05700
C1257       C  0.76060406  0.57524744  0.05766570    -0.20100
C1258       C  0.75001306  0.57166815  0.07630656    -0.06700
C1259       C  0.73988082  0.55248191  0.07927058     0.14200
C1260       C  0.74033786  0.53756543  0.06341997    -0.20200
C1261       C  0.75095377  0.54115243  0.04479307    -0.06700
C1262       C  0.76138619  0.56018382  0.04196072     0.14200
C1263       C  0.77284638  0.56491154  0.02218003    -0.23500
H1264       H  0.76841154  0.58993050  0.05552326     0.15500
H1265       H  0.73237235  0.52296082  0.06565424     0.15500
C1266       C  0.72807709  0.54739490  0.09868896    -0.23500
H1267       H  0.77935885  0.58082029  0.02224721     0.05700
H1268       H  0.76218635  0.56359028  0.00875839     0.08900
H1269       H  0.78587861  0.55391618  0.02020569     0.08900
H1270       H  0.71185030  0.54348039  0.09467204     0.08900
H1271       H  0.72764935  0.56043705  0.10972907     0.08900
H1272       H  0.73532908  0.53390385  0.10649086     0.05700
C1273       C  0.71208732  0.37686550  0.07260154    -0.20100
C1274       C  0.73349580  0.37438347  0.07035156    -0.06700
C1275       C  0.74136311  0.36315628  0.05341837     0.14200
C1276       C  0.72757936  0.35428225  0.03922161    -0.20200
C1277       C  0.70604511  0.35641921  0.04148564    -0.06700
C1278       C  0.69820066  0.36816413  0.05827718     0.14200
C1279       C  0.67532217  0.37085109  0.06175238    -0.23500
H1280       H  0.70622931  0.38531212  0.08587520     0.15500
H1281       H  0.73369231  0.34548478  0.02629604     0.15500
C1282       C  0.76429199  0.36023970  0.05055026    -0.23500
H1283       H  0.67204296  0.37962053  0.07618647     0.05700
H1284       H  0.66778274  0.35546642  0.06308346     0.08900
H1285       H  0.66841975  0.37960050  0.04867477     0.08900
H1286       H  0.77089565  0.35214915  0.06420860     0.08900
H1287       H  0.77185471  0.37554842  0.04880848     0.08900
H1288       H  0.76785030  0.35091284  0.03654183     0.05700
C1289       C  0.80066218  0.41664816  0.11688831    -0.20100
C1290       C  0.77934719  0.41898886  0.11345513    -0.06700
C1291       C  0.76944052  0.43750599  0.11960747     0.14200
C1292       C  0.78114947  0.45320808  0.12887877    -0.20200
C1293       C  0.80232640  0.45068477  0.13276654    -0.06700
C1294       C  0.81230368  0.43227633  0.12652051     0.14200
C1295       C  0.83486521  0.42858896  0.13104233    -0.23500
H1296       H  0.80810784  0.40227791  0.11246122     0.15500
H1297       H  0.77347355  0.46726222  0.13393065     0.15500
C1298       C  0.74642245  0.44079026  0.11803417    -0.23500
H1299       H  0.83994889  0.41302592  0.12579778     0.05700
H1300       H  0.83767324  0.42968351  0.14798551     0.08900
H1301       H  0.84443537  0.44029065  0.12288427     0.08900
H1302       H  0.73799991  0.42692787  0.11258222     0.08900
H1303       H  0.74320210  0.45382362  0.10728690     0.08900
H1304       H  0.74012021  0.44468220  0.13356004     0.05700
C1305       C  0.73592553  0.42599241  0.06846376    -0.20100
C1306       C  0.75514782  0.41671767  0.07209117    -0.06700
C1307       C  0.77257291  0.42357963  0.06088393     0.14200
C1308       C  0.77045500  0.43999025  0.04683313    -0.20200
C1309       C  0.75123755  0.44959736  0.04319173    -0.06700
C1310       C  0.73364833  0.44233712  0.05427226     0.14200
C1311       C  0.71245786  0.45172984  0.05173046    -0.23500
H1312       H  0.72267224  0.42060572  0.07718593     0.15500
H1313       H  0.78403181  0.44501365  0.03836473     0.15500
C1314       C  0.79349405  0.41352604  0.06283143    -0.23500
H1315       H  0.70093100  0.44446661  0.06222809     0.05700
H1316       H  0.70689801  0.44940238  0.03563328     0.08900
H1317       H  0.71299962  0.46849727  0.05546143     0.08900
H1318       H  0.79341010  0.39979663  0.07309955     0.08900
H1319       H  0.80478242  0.42492156  0.06897571     0.08900
H1320       H  0.79876710  0.40825658  0.04732943     0.05700
C1321       C  0.73659126  0.61985594  0.94189774    -0.20100
C1322       C  0.72662352  0.61298378  0.92394977    -0.06700
C1323       C  0.70496678  0.61496976  0.92207017     0.14200
C1324       C  0.69393713  0.62528865  0.93761184    -0.20200
C1325       C  0.70412292  0.63364083  0.95483348    -0.06700
C1326       C  0.72557911  0.63022127  0.95743618     0.14200
C1327       C  0.73685407  0.63716374  0.97663888    -0.23500
H1328       H  0.75317466  0.61783431  0.94334806     0.15500
H1329       H  0.67738139  0.62737502  0.93595019     0.15500
C1330       C  0.69307924  0.60637803  0.90393351    -0.23500
H1331       H  0.75327237  0.63211495  0.97655207     0.05700
H1332       H  0.72931480  0.63038421  0.99053670     0.08900
H1333       H  0.73670524  0.65429337  0.97772129     0.08900
H1334       H  0.70298423  0.59780050  0.89285330     0.08900
H1335       H  0.68536528  0.61921202  0.89550152     0.08900
H1336       H  0.68111884  0.59545126  0.90966589     0.05700
C1337       C  0.79390835  0.57186369  0.87944201    -0.20100
C1338       C  0.77232378  0.57036079  0.87941575    -0.06700
C1339       C  0.76261130  0.55380723  0.86910408     0.14200
C1340       C  0.77480484  0.53907537  0.85890527    -0.20200
C1341       C  0.79649384  0.54050599  0.85878493    -0.06700
C1342       C  0.80619451  0.55694864  0.86954742     0.14200
C1343       C  0.82932572  0.55951953  0.86986101    -0.23500
H1344       H  0.80116553  0.58506545  0.88680093     0.15500
H1345       H  0.76732223  0.52646384  0.85075525     0.15500
C1346       C  0.73939374  0.55210179  0.86819149    -0.23500
H1347       H  0.83407190  0.57378864  0.87819829     0.05700
H1348       H  0.83518026  0.56059670  0.85376394     0.08900
H1349       H  0.83660242  0.54618270  0.87786978     0.08900
H1350       H  0.73279300  0.56612475  0.86076197     0.08900
H1351       H  0.73305378  0.55056806  0.88406738     0.08900
H1352       H  0.73436121  0.53838960  0.85912557     0.05700
C1353       C  0.73198814  0.56196708  0.92635454    -0.20100
C1354       C  0.75052885  0.57233088  0.92215455    -0.06700
C1355       C  0.76825544  0.56762109  0.93395352     0.14200
C1356       C  0.76718508  0.55211897  0.94914797    -0.20200
C1357       C  0.74861451  0.54156594  0.95350088    -0.06700
C1358       C  0.73069975  0.54667080  0.94179043     0.14200
C1359       C  0.71019739  0.53603836  0.94500980    -0.23500
H1360       H  0.71841308  0.56595378  0.91736635     0.15500
H1361       H  0.78097560  0.54869310  0.95805181     0.15500
C1362       C  0.78824675  0.57929496  0.93159576    -0.23500
H1363       H  0.69832445  0.54154831  0.93386185     0.05700
H1364       H  0.70428955  0.53932548  0.96081601     0.08900
H1365       H  0.71196588  0.51909158  0.94275182     0.08900
H1366       H  0.78703215  0.59234354  0.92053904     0.08900
H1367       H  0.80056878  0.56857962  0.92625476     0.08900
H1368       H  0.79281291  0.58592175  0.94679233     0.05700
C1369       C  0.70915538  0.38075889  0.92496400    -0.20100
C1370       C  0.73054819  0.37753491  0.92577063    -0.06700
C1371       C  0.73904070  0.36515289  0.94157982     0.14200
C1372       C  0.72582036  0.35558847  0.95585689    -0.20200
C1373       C  0.70426339  0.35814077  0.95475301    -0.06700
C1374       C  0.69584496  0.37138067  0.93940184     0.14200
C1375       C  0.67290992  0.37501338  0.93750037    -0.23500
H1376       H  0.70281394  0.39016991  0.91259515     0.15500
H1377       H  0.73238277  0.34586937  0.96786999     0.15500
C1378       C  0.76201550  0.36172240  0.94316847    -0.23500
H1379       H  0.66912521  0.38493599  0.92396318     0.05700
H1380       H  0.66707050  0.38299367  0.95155612     0.08900
H1381       H  0.66476535  0.36001393  0.93551135     0.08900
H1382       H  0.76986629  0.37676998  0.94556046     0.08900
H1383       H  0.76789227  0.35444669  0.92874428     0.08900
H1384       H  0.76605020  0.35147286  0.95638438     0.05700
C1385       C  0.76674214  0.43994128  0.87786762    -0.20100
C1386       C  0.77641799  0.42076579  0.88107332    -0.06700
C1387       C  0.79698331  0.41784632  0.87406115     0.14200
C1388       C  0.80690297  0.43378734  0.86319268    -0.20200
C1389       C  0.79686335  0.45252461  0.85907147    -0.06700
C1390       C  0.77671052  0.45587843  0.86688864     0.14200
C1391       C  0.76581900  0.47628914  0.86391287    -0.23500
H1392       H  0.75101915  0.44217193  0.88324068     0.15500
H1393       H  0.82251061  0.43139796  0.85750969     0.15500
C1394       C  0.80909401  0.39826211  0.87785231    -0.23500
H1395       H  0.75047996  0.47648566  0.87166382     0.05700
H1396       H  0.76333293  0.47927549  0.84716948     0.08900
H1397       H  0.77530214  0.48895921  0.87060589     0.08900
H1398       H  0.81282811  0.39082163  0.86280163     0.08900
H1399       H  0.80080421  0.38692184  0.88766550     0.08900
H1400       H  0.82374909  0.40211550  0.88593733     0.05700
C1401       C  0.73353768  0.42999962  0.92615002    -0.20100
C1402       C  0.75227152  0.41962463  0.92284222    -0.06700
C1403       C  0.76964742  0.42491347  0.93490786     0.14200
C1404       C  0.76792067  0.44059649  0.94980222    -0.20200
C1405       C  0.74916345  0.45110304  0.95336937    -0.06700
C1406       C  0.73165232  0.44562431  0.94123166     0.14200
C1407       C  0.71101842  0.45620213  0.94364794    -0.23500
H1408       H  0.72033261  0.42583214  0.91671282     0.15500
H1409       H  0.78144180  0.44434129  0.95898296     0.15500
C1410       C  0.79011833  0.41399668  0.93289534    -0.23500
H1411       H  0.69949248  0.45037239  0.93230292     0.05700
H1412       H  0.71276598  0.47310739  0.94107463     0.08900
H1413       H  0.70471280  0.45323970  0.95936656     0.08900
H1414       H  0.80209781  0.42518490  0.92775392     0.08900
H1415       H  0.78970794  0.40099233  0.92176479     0.08900
H1416       H  0.79469231  0.40754523  0.94817226     0.05700
C1417       C  0.04182700  0.64071330  0.72235340    -0.20100
C1418       C  0.04004153  0.63583561  0.70117473    -0.06700
C1419       C  0.05291917  0.62009931  0.69279266     0.14200
C1420       C  0.06749500  0.61033940  0.70569025    -0.20200
C1421       C  0.06971218  0.61612089  0.72647282    -0.06700
C1422       C  0.05651090  0.63120053  0.73502165     0.14200
C1423       C  0.05758995  0.63780618  0.75741542    -0.23500
H1424       H  0.03186104  0.65234872  0.72919429     0.15500
H1425       H  0.07784345  0.59875638  0.69933947     0.15500
C1426       C  0.05217243  0.61402214  0.67026136    -0.23500
H1427       H  0.04231052  0.63531088  0.76486358     0.05700
H1428       H  0.06153149  0.65451118  0.75827215     0.08900
H1429       H  0.06920395  0.62905609  0.76650654     0.08900
H1430       H  0.05539030  0.62772659  0.66038268     0.08900
H1431       H  0.03674889  0.60753229  0.66645600     0.08900
H1432       H  0.06387221  0.60201194  0.66647849     0.05700
C1433       C  0.13303326  0.56160961  0.76129471    -0.20100
C1434       C  0.11564163  0.57157172  0.76934746    -0.06700
C1435       C  0.10894591  0.56695112  0.78959583     0.14200
C1436       C  0.11956161  0.55188756  0.80114302    -0.20200
C1437       C  0.13709078  0.54168504  0.79313192    -0.06700
C1438       C  0.14386717  0.54673586  0.77274148     0.14200
C1439       C  0.16252401  0.53694201  0.76266413    -0.23500
H1440       H  0.13843508  0.56588329  0.74596947     0.15500
H1441       H  0.11433498  0.54842539  0.81671430     0.15500
C1442       C  0.09129215  0.57857174  0.79940944    -0.23500
H1443       H  0.16502973  0.54272622  0.74664648     0.05700
H1444       H  0.16040517  0.51993047  0.76163420     0.08900
H1445       H  0.17666914  0.54068901  0.77164750     0.08900
H1446       H  0.07685348  0.57564644  0.79070628     0.08900
H1447       H  0.09464829  0.59542834  0.79936974     0.08900
H1448       H  0.08869746  0.57368499  0.81570490     0.05700
C1449       C  0.06055282  0.53918244  0.73667399    -0.20100
C1450       C  0.04138543  0.54326480  0.74599385    -0.06700
C1451       C  0.03785656  0.56271256  0.75529158     0.14200
C1452       C  0.05374024  0.57749491  0.75538644    -0.20200
C1453       C  0.07308394  0.57331623  0.74648415    -0.06700
C1454       C  0.07640164  0.55404952  0.73663360     0.14200
C1455       C  0.09606785  0.54901762  0.72524480    -0.23500
H1456       H  0.06312286  0.52434641  0.72924235     0.15500
H1457       H  0.05118665  0.59239268  0.76262147     0.15500
C1458       C  0.01717204  0.56811721  0.76456167    -0.23500
H1459       H  0.09236583  0.54454516  0.70905562     0.05700
H1460       H  0.10398582  0.53587127  0.73299125     0.08900
H1461       H  0.10681044  0.56232931  0.72444436     0.08900
H1462       H  0.01376054  0.55765061  0.77775934     0.08900
H1463       H  0.00490103  0.56650777  0.75263357     0.08900
H1464       H  0.01682472  0.58427870  0.77041660     0.05700
C1465       C  0.05490855  0.37559157  0.73098355    -0.20100
C1466       C  0.07269892  0.38299521  0.72112241    -0.06700
C1467       C  0.07462322  0.38121132  0.69942216     0.14200
C1468       C  0.05908821  0.37099436  0.68816195    -0.20200
C1469       C  0.04196231  0.36217208  0.69823004    -0.06700
C1470       C  0.03953435  0.36507310  0.71986390     0.14200
C1471       C  0.02075059  0.35732200  0.73135252    -0.23500
H1472       H  0.05349748  0.37722152  0.74763853     0.15500
H1473       H  0.06073749  0.36915773  0.67154799     0.15500
C1474       C  0.09304318  0.39003317  0.68819504    -0.23500
H1475       H  0.02083061  0.36230195  0.74782703     0.05700
H1476       H  0.02035088  0.34016246  0.73120891     0.08900
H1477       H  0.00649958  0.36352323  0.72403051     0.08900
H1478       H  0.10742617  0.38241841  0.69363355     0.08900
H1479       H  0.09408664  0.40691899  0.69118919     0.08900
H1480       H  0.09188237  0.38768001  0.67118698     0.05700
C1481       C  0.12828303  0.43471756  0.80542132    -0.20100
C1482       C  0.13225047  0.45425011  0.79689555    -0.06700
C1483       C  0.12549923  0.45882805  0.77660573     0.14200
C1484       C  0.11607599  0.44327659  0.76477540    -0.20200
C1485       C  0.11335963  0.42327672  0.77274264    -0.06700
C1486       C  0.11902968  0.41905039  0.79351670     0.14200
C1487       C  0.11538385  0.39814032  0.80323385    -0.23500
H1488       H  0.13321791  0.43147481  0.82114512     0.15500
H1489       H  0.11170276  0.44649583  0.74889546     0.15500
C1490       C  0.12824521  0.48011486  0.76742512    -0.23500
H1491       H  0.12010717  0.39789964  0.81977876     0.05700
H1492       H  0.12445447  0.38607986  0.79509561     0.08900
H1493       H  0.09872518  0.39418821  0.80251439     0.08900
H1494       H  0.14493103  0.48386601  0.76616277     0.08900
H1495       H  0.12054094  0.49178097  0.77743381     0.08900
H1496       H  0.12139991  0.48121989  0.75168098     0.05700
C1497       C  0.04384183  0.44043233  0.76182322    -0.20100
C1498       C  0.04253115  0.45389756  0.74473905    -0.06700
C1499       C  0.05724169  0.45196712  0.72850595     0.14200
C1500       C  0.07234398  0.43639659  0.72966536    -0.20200
C1501       C  0.07333194  0.42289731  0.74659199    -0.06700
C1502       C  0.05891704  0.42487257  0.76283956     0.14200
C1503       C  0.05866781  0.41041329  0.78110628    -0.23500
H1504       H  0.03270210  0.44169497  0.77431780     0.15500
H1505       H  0.08366322  0.43476586  0.71739662     0.15500
C1506       C  0.05769610  0.46653553  0.71024629    -0.23500
H1507       H  0.06178952  0.41925685  0.79551656     0.05700
H1508       H  0.07025509  0.39788286  0.77972710     0.08900
H1509       H  0.04323234  0.40298760  0.78233347     0.08900
H1510       H  0.05887209  0.48277260  0.71577040     0.08900
H1511       H  0.04353619  0.46457507  0.70075485     0.08900
H1512       H  0.07114578  0.46350880  0.69997194     0.05700
C1513       C  0.93756694  0.61951365  0.72789979    -0.20100
C1514       C  0.91958445  0.61447119  0.71688683    -0.06700
C1515       C  0.91802459  0.61991848  0.69568767     0.14200
C1516       C  0.93450971  0.63031927  0.68610719    -0.20200
C1517       C  0.95202989  0.63627294  0.69737536    -0.06700
C1518       C  0.95369818  0.63065653  0.71850747     0.14200
C1519       C  0.97248061  0.63621226  0.73117108    -0.23500
H1520       H  0.93858650  0.61551845  0.74418387     0.15500
H1521       H  0.93337312  0.63459033  0.66989804     0.15500
C1522       C  0.89902844  0.61505623  0.68304468    -0.23500
H1523       H  0.97157818  0.62975506  0.74710134     0.05700
H1524       H  0.97381390  0.65327495  0.73256136     0.08900
H1525       H  0.98661066  0.62994291  0.72366966     0.08900
H1526       H  0.88534333  0.62309410  0.68951586     0.08900
H1527       H  0.89617746  0.59818013  0.68285196     0.08900
H1528       H  0.90075697  0.62018605  0.66670686     0.05700
C1529       C  0.88037825  0.57018310  0.78377472    -0.20100
C1530       C  0.87623220  0.56965455  0.76249285    -0.06700
C1531       C  0.86311720  0.55423310  0.75443835     0.14200
C1532       C  0.85415987  0.53979660  0.76791537    -0.20200
C1533       C  0.85786049  0.54040924  0.78936397    -0.06700
C1534       C  0.87143962  0.55570231  0.79737155     0.14200
C1535       C  0.87589133  0.55755909  0.82019758    -0.23500
H1536       H  0.89017611  0.58237339  0.78983337     0.15500
H1537       H  0.84405148  0.52799176  0.76161363     0.15500
C1538       C  0.85832183  0.55313719  0.73163916    -0.23500
H1539       H  0.88590164  0.57108800  0.82368036     0.05700
H1540       H  0.88403894  0.54351459  0.82578158     0.08900
H1541       H  0.86120662  0.55957443  0.82880168     0.08900
H1542       H  0.87278178  0.55044657  0.72287519     0.08900
H1543       H  0.85110305  0.56781991  0.72640315     0.08900
H1544       H  0.84751465  0.54028719  0.72799266     0.05700
C1545       C  0.92976439  0.57085920  0.75917006    -0.20100
C1546       C  0.91843484  0.57277053  0.74078333    -0.06700
C1547       C  0.92315978  0.55976475  0.72390006     0.14200
C1548       C  0.93927356  0.54538578  0.72567460    -0.20200
C1549       C  0.95064254  0.54314589  0.74412079    -0.06700
C1550       C  0.94576651  0.55621577  0.76116100     0.14200
C1551       C  0.95745989  0.55529979  0.78133064    -0.23500
H1552       H  0.92604124  0.58101463  0.77199265     0.15500
H1553       H  0.94259970  0.53546012  0.71254856     0.15500
C1554       C  0.91113357  0.56022803  0.70398310    -0.23500
H1555       H  0.97417566  0.55784110  0.77846436     0.05700
H1556       H  0.95503995  0.54005594  0.78887303     0.08900
H1557       H  0.95215582  0.56736980  0.79237609     0.08900
H1558       H  0.92140755  0.56515084  0.69110774     0.08900
H1559       H  0.89773695  0.57081632  0.70472369     0.08900
H1560       H  0.90506643  0.54451424  0.70057470     0.05700
C1561       C  0.92700388  0.38532967  0.69876130    -0.20100
C1562       C  0.92370423  0.37955877  0.71939857    -0.06700
C1563       C  0.93622321  0.36423103  0.72848178     0.14200
C1564       C  0.95154885  0.35464150  0.71654085    -0.20200
C1565       C  0.95461188  0.35980493  0.69555590    -0.06700
C1566       C  0.94234754  0.37575163  0.68666837     0.14200
C1567       C  0.94468017  0.38241161  0.66440019    -0.23500
H1568       H  0.91699875  0.39684837  0.69184233     0.15500
H1569       H  0.96105049  0.34281664  0.72369477     0.15500
C1570       C  0.93326008  0.35781297  0.75074334    -0.23500
H1571       H  0.93326511  0.39452027  0.66009848     0.05700
H1572       H  0.94221505  0.36897528  0.65396645     0.08900
H1573       H  0.96031187  0.38903776  0.66187299     0.08900
H1574       H  0.91754142  0.35128554  0.75293918     0.08900
H1575       H  0.93521049  0.37144359  0.76101581     0.08900
H1576       H  0.94463646  0.34585188  0.75552470     0.05700
C1577       C  0.88478532  0.42759415  0.78105681    -0.20100
C1578       C  0.87683368  0.42448000  0.76113150    -0.06700
C1579       C  0.85940725  0.43584708  0.75463041     0.14200
C1580       C  0.85020464  0.44997434  0.76829700    -0.20200
C1581       C  0.85772475  0.45292287  0.78856817    -0.06700
C1582       C  0.87545429  0.44155526  0.79494687     0.14200
C1583       C  0.88434187  0.44332649  0.81646057    -0.23500
H1584       H  0.89789682  0.41842187  0.78605246     0.15500
H1585       H  0.83688026  0.45867512  0.76304070     0.15500
C1586       C  0.85046746  0.43313449  0.73322769    -0.23500
H1587       H  0.89754972  0.43259315  0.81883290     0.05700
H1588       H  0.87232846  0.43940919  0.82811963     0.08900
H1589       H  0.89016487  0.45926354  0.81910694     0.08900
H1590       H  0.84493951  0.41702482  0.73111167     0.08900
H1591       H  0.86243652  0.43663640  0.72142837     0.08900
H1592       H  0.83714447  0.44363219  0.73049939     0.05700
C1593       C  0.93412495  0.42185158  0.75700774    -0.20100
C1594       C  0.92008186  0.42209117  0.74052566    -0.06700
C1595       C  0.92200381  0.43729051  0.72496258     0.14200
C1596       C  0.93775680  0.45215409  0.72644034    -0.20200
C1597       C  0.95166092  0.45234378  0.74319684    -0.06700
C1598       C  0.94990130  0.43674796  0.75861351     0.14200
C1599       C  0.96488235  0.43518625  0.77643316    -0.23500
H1600       H  0.93264664  0.40988817  0.76867663     0.15500
H1601       H  0.93898261  0.46387320  0.71447163     0.15500
C1602       C  0.90765172  0.43823354  0.70664598    -0.23500
H1603       H  0.96192592  0.42124987  0.78607751     0.05700
H1604       H  0.96334640  0.44889072  0.78666785     0.08900
H1605       H  0.98094656  0.43412147  0.77043546     0.08900
H1606       H  0.89588265  0.42577383  0.70684984     0.08900
H1607       H  0.91673668  0.43674163  0.69211789     0.08900
H1608       H  0.89946808  0.45333904  0.70654592     0.05700
C1609       C  0.25302825  0.63593777  0.04796980    -0.20100
C1610       C  0.26108983  0.62347140  0.06372683    -0.06700
C1611       C  0.28254577  0.61983696  0.06474148     0.14200
C1612       C  0.29555940  0.62894009  0.04995760    -0.20200
C1613       C  0.28765957  0.64185387  0.03433212    -0.06700
C1614       C  0.26596406  0.64505133  0.03308546     0.14200
C1615       C  0.25615643  0.65768089  0.01605350    -0.23500
H1616       H  0.23655979  0.63898311  0.04761843     0.15500
H1617       H  0.31208944  0.62636848  0.05096198     0.15500
C1618       C  0.29179935  0.60684934  0.08176233    -0.23500
H1619       H  0.23900348  0.65715914  0.01681633     0.05700
H1620       H  0.26089125  0.65151105  0.00070857     0.08900
H1621       H  0.26080561  0.67414863  0.01744748     0.08900
H1622       H  0.28556147  0.59091137  0.08094811     0.08900
H1623       H  0.28799997  0.61365619  0.09708754     0.08900
H1624       H  0.30889591  0.60588802  0.08045438     0.05700
C1625       C  0.22934275  0.56661557  0.12333460    -0.20100
C1626       C  0.21821124  0.57919276  0.10968639    -0.06700
C1627       C  0.19684350  0.57603541  0.10711353     0.14200
C1628       C  0.18712001  0.55987410  0.11785780    -0.20200
C1629       C  0.19808643  0.54722167  0.13180339    -0.06700
C1630       C  0.21958241  0.55085307  0.13469537     0.14200
C1631       C  0.23248222  0.53851696  0.14971525    -0.23500
H1632       H  0.24569203  0.56960705  0.12555618     0.15500
H1633       H  0.17067025  0.55749651  0.11573121     0.15500
C1634       C  0.18418363  0.59007975  0.09350989    -0.23500
H1635       H  0.24903811  0.54306939  0.14918548     0.05700
H1636       H  0.23158332  0.52185969  0.14591053     0.08900
H1637       H  0.22694602  0.54114426  0.16577526     0.08900
H1638       H  0.18977609  0.58897770  0.07734760     0.08900
H1639       H  0.18558285  0.60631992  0.09895938     0.08900
H1640       H  0.16754949  0.58581354  0.09366765     0.05700
C1641       C  0.25201174  0.56438436  0.07086067    -0.20100
C1642       C  0.23911642  0.58132824  0.06674375    -0.06700
C1643       C  0.22797295  0.58199721  0.04793093     0.14200
C1644       C  0.23010015  0.56574436  0.03367106    -0.20200
C1645       C  0.24338869  0.54899802  0.03753632    -0.06700
C1646       C  0.25455517  0.54834368  0.05636510     0.14200
C1647       C  0.26869447  0.53053644  0.06150040    -0.23500
H1648       H  0.26027538  0.56387923  0.08544366     0.15500
H1649       H  0.22140702  0.56623859  0.01930880     0.15500
C1650       C  0.21347868  0.59941871  0.04257846    -0.23500
H1651       H  0.27548717  0.53213710  0.07722357     0.05700
H1652       H  0.28163720  0.52993001  0.05022644     0.08900
H1653       H  0.25993427  0.51576158  0.06097464     0.08900
H1654       H  0.21898604  0.60732583  0.02833022     0.08900
H1655       H  0.21219320  0.61103823  0.05513304     0.08900
H1656       H  0.19778006  0.59311182  0.03964194     0.05700
C1657       C  0.26702643  0.38218015  0.05055056    -0.20100
C1658       C  0.27511391  0.38512175  0.07046352    -0.06700
C1659       C  0.29566338  0.37890597  0.07481501     0.14200
C1660       C  0.30728492  0.36905174  0.05929954    -0.20200
C1661       C  0.29859381  0.36480834  0.03989996    -0.06700
C1662       C  0.27849636  0.37198549  0.03521870     0.14200
C1663       C  0.26912727  0.36888754  0.01405829    -0.23500
H1664       H  0.25131328  0.38698924  0.04726446     0.15500
H1665       H  0.32282311  0.36371192  0.06263771     0.15500
C1666       C  0.30538410  0.38248960  0.09575733    -0.23500
H1667       H  0.25357053  0.37607721  0.01286646     0.05700
H1668       H  0.26744338  0.35212781  0.01073686     0.08900
H1669       H  0.27921593  0.37607049  0.00212899     0.08900
H1670       H  0.29730643  0.37328882  0.10777129     0.08900
H1671       H  0.30459048  0.39911762  0.09993508     0.08900
H1672       H  0.32190466  0.37779698  0.09593197     0.05700
C1673       C  0.19000684  0.44015282  0.12081861    -0.20100
C1674       C  0.19949934  0.45841814  0.12768158    -0.06700
C1675       C  0.22072356  0.46171048  0.12362125     0.14200
C1676       C  0.23227736  0.44603217  0.11413068    -0.20200
C1677       C  0.22315282  0.42714738  0.10879338    -0.06700
C1678       C  0.20166326  0.42435348  0.11150427     0.14200
C1679       C  0.19103613  0.40482022  0.10452457    -0.23500
H1680       H  0.17361313  0.43790586  0.12352029     0.15500
H1681       H  0.24871200  0.44817253  0.11170938     0.15500
C1682       C  0.23120728  0.48177878  0.12905163    -0.23500
H1683       H  0.17408150  0.40554135  0.10718429     0.05700
H1684       H  0.19712913  0.39131303  0.11318863     0.08900
H1685       H  0.19371342  0.40247763  0.08769659     0.08900
H1686       H  0.23121191  0.48398375  0.14609011     0.08900
H1687       H  0.22293907  0.49479199  0.12145209     0.08900
H1688       H  0.24754515  0.48209092  0.12374145     0.05700
C1689       C  0.26437974  0.45488944  0.05111346    -0.20100
C1690       C  0.24639940  0.45720983  0.03905431    -0.06700
C1691       C  0.22970872  0.44326962  0.04222993     0.14200
C1692       C  0.23142543  0.42786135  0.05749177    -0.20200
C1693       C  0.24935270  0.42571790  0.06944822    -0.06700
C1694       C  0.26605049  0.43934183  0.06620207     0.14200
C1695       C  0.28548408  0.43781326  0.07888276    -0.23500
H1696       H  0.27724778  0.46539049  0.04882946     0.15500
H1697       H  0.21870836  0.41728586  0.06019538     0.15500
C1698       C  0.21021425  0.44404429  0.02944813    -0.23500
H1699       H  0.29627295  0.45076968  0.07555439     0.05700
H1700       H  0.29363398  0.42326555  0.07507752     0.08900
H1701       H  0.28172618  0.43816541  0.09565440     0.08900
H1702       H  0.21408167  0.44255589  0.01274589     0.08900
H1703       H  0.20191261  0.45880508  0.03228323     0.08900
H1704       H  0.19944188  0.43126592  0.03346981     0.05700
C1705       C  0.29450255  0.61491135  0.91626712    -0.20100
C1706       C  0.27301278  0.61766833  0.91600177    -0.06700
C1707       C  0.26344990  0.62973675  0.93144428     0.14200
C1708       C  0.27564771  0.63892679  0.94680810    -0.20200
C1709       C  0.29719278  0.63623525  0.94720377    -0.06700
C1710       C  0.30674424  0.62377199  0.93191084     0.14200
C1711       C  0.32979694  0.62041060  0.93147648    -0.23500
H1712       H  0.30176837  0.60608103  0.90400084     0.15500
H1713       H  0.26830201  0.64839946  0.95856107     0.15500
C1714       C  0.24044401  0.63340989  0.93140397    -0.23500
H1715       H  0.33461867  0.61104295  0.91787762     0.05700
H1716       H  0.33472675  0.61197177  0.94561511     0.08900
H1717       H  0.33789364  0.63554519  0.93064002     0.08900
H1718       H  0.23217742  0.61847081  0.93291274     0.08900
H1719       H  0.23577922  0.64102644  0.91670985     0.08900
H1720       H  0.23555755  0.64349206  0.94445450     0.05700
C1721       C  0.23318735  0.55391329  0.87308429    -0.20100
C1722       C  0.22494230  0.57389107  0.87495533    -0.06700
C1723       C  0.20388286  0.57735630  0.87024185     0.14200
C1724       C  0.19193300  0.56100331  0.86240078    -0.20200
C1725       C  0.20060758  0.54139180  0.85918017    -0.06700
C1726       C  0.22123848  0.53756528  0.86527709     0.14200
C1727       C  0.23054472  0.51621167  0.86391178    -0.23500
H1728       H  0.24921771  0.55123457  0.87716225     0.15500
H1729       H  0.17595152  0.56369921  0.85811224     0.15500
C1730       C  0.19388051  0.59812090  0.87380250    -0.23500
H1731       H  0.24648535  0.51581167  0.87030227     0.05700
H1732       H  0.23131351  0.51109209  0.84752890     0.08900
H1733       H  0.22096065  0.50513596  0.87292020     0.08900
H1734       H  0.20100838  0.61000254  0.86367991     0.08900
H1735       H  0.19578935  0.60271183  0.89027149     0.08900
H1736       H  0.17707090  0.59774235  0.87030185     0.05700
C1737       C  0.23104490  0.57458894  0.92709800    -0.20100
C1738       C  0.24920433  0.57651221  0.91546910    -0.06700
C1739       C  0.26605184  0.56331319  0.91961535     0.14200
C1740       C  0.26456583  0.54891670  0.93576967    -0.20200
C1741       C  0.24640878  0.54687126  0.94760726    -0.06700
C1742       C  0.22938379  0.56005550  0.94320190     0.14200
C1743       C  0.20960085  0.55941748  0.95554979    -0.23500
H1744       H  0.21809902  0.58459343  0.92345622     0.15500
H1745       H  0.27761387  0.53880210  0.93872754     0.15500
C1746       C  0.28542690  0.56335477  0.90669094    -0.23500
H1747       H  0.19861971  0.57169043  0.95062140     0.05700
H1748       H  0.21301084  0.56184749  0.97223730     0.08900
H1749       H  0.20174408  0.54432074  0.95329166     0.08900
H1750       H  0.29886304  0.56755772  0.91653220     0.08900
H1751       H  0.28460167  0.57425416  0.89346965     0.08900
H1752       H  0.28799501  0.54765482  0.90018514     0.05700
C1753       C  0.28774611  0.37992652  0.92319682    -0.20100
C1754       C  0.26632562  0.37829914  0.92572511    -0.06700
C1755       C  0.25815368  0.36760891  0.94286715     0.14200
C1756       C  0.27169542  0.35811057  0.95684523    -0.20200
C1757       C  0.29324333  0.35923013  0.95419065    -0.06700
C1758       C  0.30139676  0.37073026  0.93736069     0.14200
C1759       C  0.32430517  0.37269516  0.93363237    -0.23500
H1760       H  0.29377406  0.38805973  0.90979450     0.15500
H1761       H  0.26537309  0.34961758  0.96987314     0.15500
C1762       C  0.23517724  0.36583530  0.94617021    -0.23500
H1763       H  0.32772783  0.38129481  0.91912357     0.05700
H1764       H  0.33130870  0.35710310  0.93227096     0.08900
H1765       H  0.33162775  0.38127180  0.94658607     0.08900
H1766       H  0.22786568  0.35827717  0.93257662     0.08900
H1767       H  0.22851145  0.38148451  0.94828502     0.08900
H1768       H  0.23141705  0.35655592  0.96016612     0.05700
C1769       C  0.19911238  0.42059894  0.88168799    -0.20100
C1770       C  0.22073314  0.42202745  0.88191069    -0.06700
C1771       C  0.23058634  0.43891572  0.87224179     0.14200
C1772       C  0.21849871  0.45415996  0.86270406    -0.20200
C1773       C  0.19682327  0.45284099  0.86249121    -0.06700
C1774       C  0.18696021  0.43593940  0.87227940     0.14200
C1775       C  0.16380584  0.43340665  0.87192020    -0.23500
H1776       H  0.19173705  0.40718015  0.88854900     0.15500
H1777       H  0.22603830  0.46703594  0.85501385     0.15500
C1778       C  0.25380495  0.44037772  0.87102436    -0.23500
H1779       H  0.15887620  0.41877873  0.87950609     0.05700
H1780       H  0.15823099  0.43312172  0.85564985     0.08900
H1781       H  0.15637720  0.44639614  0.88034742     0.08900
H1782       H  0.26014299  0.42640954  0.86327515     0.08900
H1783       H  0.26040781  0.44163619  0.88677326     0.08900
H1784       H  0.25887250  0.45418003  0.86209950     0.05700
C1785       C  0.26327164  0.43027308  0.92699274    -0.20100
C1786       C  0.24427915  0.42045396  0.92347618    -0.06700
C1787       C  0.22665516  0.42716045  0.93443184     0.14200
C1788       C  0.22820753  0.44418893  0.94775129    -0.20200
C1789       C  0.24708385  0.45457449  0.95102725    -0.06700
C1790       C  0.26498230  0.44727332  0.94051469     0.14200
C1791       C  0.28586437  0.45732699  0.94296467    -0.23500
H1792       H  0.27674067  0.42486656  0.91860874     0.15500
H1793       H  0.21442776  0.44908701  0.95596195     0.15500
C1794       C  0.20612914  0.41626229  0.93305491    -0.23500
H1795       H  0.29774608  0.44989425  0.93300221     0.05700
H1796       H  0.29118071  0.45589125  0.95924919     0.08900
H1797       H  0.28494586  0.47389282  0.93847051     0.08900
H1798       H  0.20673232  0.40217684  0.92330376     0.08900
H1799       H  0.19434016  0.42698325  0.92664071     0.08900
H1800       H  0.20118585  0.41137015  0.94879326     0.05700
C1801       C  0.61372589  0.29051862  0.07148589    -0.20100
C1802       C  0.61864466  0.26955385  0.07359950    -0.06700
C1803       C  0.63321006  0.26041275  0.06023971     0.14200
C1804       C  0.64267646  0.27255420  0.04499113    -0.20200
C1805       C  0.63816984  0.29376864  0.04291678    -0.06700
C1806       C  0.62323454  0.30282422  0.05628919     0.14200
C1807       C  0.61763029  0.32545583  0.05530796    -0.23500
H1808       H  0.60279194  0.29740778  0.08218556     0.15500
H1809       H  0.65384880  0.26537961  0.03474010     0.15500
C1810       C  0.63899953  0.23791397  0.06223762    -0.23500
H1811       H  0.60637135  0.32980021  0.06756133     0.05700
H1812       H  0.61036287  0.32904747  0.04015380     0.08900
H1813       H  0.63168015  0.33507712  0.05752538     0.08900
H1814       H  0.62512956  0.22816613  0.05980211     0.08900
H1815       H  0.64543064  0.23486279  0.07788600     0.08900
H1816       H  0.65080097  0.23329544  0.05061812     0.05700
C1817       C  0.57403917  0.20545829  0.11725593    -0.20100
C1818       C  0.57251335  0.22704761  0.11814429    -0.06700
C1819       C  0.55584968  0.23631477  0.12869223     0.14200
C1820       C  0.54095766  0.22366198  0.13814980    -0.20200
C1821       C  0.54233024  0.20196372  0.13716983    -0.06700
C1822       C  0.55899164  0.19273931  0.12633609     0.14200
C1823       C  0.56159674  0.16958364  0.12504421    -0.23500
H1824       H  0.58736929  0.19849868  0.10985936     0.15500
H1825       H  0.52821177  0.23075129  0.14643911     0.15500
C1826       C  0.55414424  0.25949725  0.13049299    -0.23500
H1827       H  0.57614793  0.16523221  0.11699928     0.05700
H1828       H  0.54861671  0.16271056  0.11616571     0.08900
H1829       H  0.56205573  0.16284150  0.14086979     0.08900
H1830       H  0.55294856  0.26645734  0.11483406     0.08900
H1831       H  0.56801905  0.26577218  0.13843235     0.08900
H1832       H  0.54027931  0.26418557  0.13950283     0.05700
C1833       C  0.56513093  0.26691882  0.07162394    -0.20100
C1834       C  0.57608773  0.24861416  0.07536096    -0.06700
C1835       C  0.57198831  0.23105380  0.06305997     0.14200
C1836       C  0.55657624  0.23205104  0.04777170    -0.20200
C1837       C  0.54528307  0.25032655  0.04399995    -0.06700
C1838       C  0.54986765  0.26812602  0.05613644     0.14200
C1839       C  0.53864136  0.28838392  0.05336454    -0.23500
H1840       H  0.56848440  0.28032196  0.08111583     0.15500
H1841       H  0.55358492  0.21836444  0.03853793     0.15500
C1842       C  0.58389527  0.21118201  0.06531958    -0.23500
H1843       H  0.54386432  0.30021920  0.06469621     0.05700
H1844       H  0.52178549  0.28608095  0.05568093     0.08900
H1845       H  0.54166246  0.29466331  0.03764326     0.08900
H1846       H  0.57319225  0.19851245  0.06980890     0.08900
H1847       H  0.59630219  0.21223991  0.07707577     0.08900
H1848       H  0.59126410  0.20718982  0.05030046     0.05700
C1849       C  0.37733871  0.26582933  0.05510363    -0.20100
C1850       C  0.38200625  0.27607099  0.07367343    -0.06700
C1851       C  0.37733286  0.29738177  0.07574584     0.14200
C1852       C  0.36770940  0.30777951  0.05931252    -0.20200
C1853       C  0.36197607  0.29724698  0.04128635    -0.06700
C1854       C  0.36715090  0.27613538  0.03890780     0.14200
C1855       C  0.36211833  0.26454940  0.01927754    -0.23500
H1856       H  0.38087673  0.24949911  0.05361873     0.15500
H1857       H  0.36380815  0.32403008  0.06087728     0.15500
C1858       C  0.38222662  0.30929107  0.09522550    -0.23500
H1859       H  0.36788735  0.24836214  0.01978219     0.05700
H1860       H  0.36945779  0.27241852  0.00586046     0.08900
H1861       H  0.34513410  0.26399003  0.01693772     0.08900
H1862       H  0.39899671  0.30858108  0.09851105     0.08900
H1863       H  0.37350766  0.30289522  0.10854574     0.08900
H1864       H  0.37793997  0.32587783  0.09377812     0.05700
C1865       C  0.42750808  0.21015239  0.11130316    -0.20100
C1866       C  0.42583019  0.23067014  0.11805852    -0.06700
C1867       C  0.43905447  0.23798662  0.13377183     0.14200
C1868       C  0.45328827  0.22441734  0.14283060    -0.20200
C1869       C  0.45464870  0.20356431  0.13673412    -0.06700
C1870       C  0.44176479  0.19643430  0.12038717     0.14200
C1871       C  0.44227392  0.17436464  0.11283609    -0.23500
H1872       H  0.41709680  0.20466381  0.09934997     0.15500
H1873       H  0.46336784  0.23020774  0.15492085     0.15500
C1874       C  0.43820956  0.26011849  0.14108841    -0.23500
H1875       H  0.43048507  0.17149031  0.10065930     0.05700
H1876       H  0.43906173  0.16364119  0.12589780     0.08900
H1877       H  0.45761813  0.17086457  0.10597834     0.08900
H1878       H  0.42264408  0.26374861  0.14732273     0.08900
H1879       H  0.44174787  0.27062606  0.12802409     0.08900
H1880       H  0.44966730  0.26319506  0.15352463     0.05700
C1881       C  0.42378011  0.23487032  0.06220161    -0.20100
C1882       C  0.42322314  0.25191918  0.07557300    -0.06700
C1883       C  0.43793544  0.26785057  0.07327393     0.14200
C1884       C  0.45309099  0.26622877  0.05786196    -0.20200
C1885       C  0.45403368  0.24900761  0.04461275    -0.06700
C1886       C  0.43889744  0.23322134  0.04661893     0.14200
C1887       C  0.43799725  0.21503924  0.03201220    -0.23500
H1888       H  0.41217506  0.22290313  0.06394461     0.15500
H1889       H  0.46444524  0.27849102  0.05638073     0.15500
C1890       C  0.43817020  0.28668173  0.08692736    -0.23500
H1891       H  0.42432496  0.20509058  0.03507517     0.05700
H1892       H  0.45196797  0.20525759  0.03389265     0.08900
H1893       H  0.43691734  0.22063265  0.01576978     0.08900
H1894       H  0.45343394  0.28797693  0.09468576     0.08900
H1895       H  0.42617287  0.28608425  0.09910831     0.08900
H1896       H  0.43554635  0.30072953  0.07736765     0.05700
C1897       C  0.62170534  0.26088138  0.94271303    -0.20100
C1898       C  0.61519747  0.27044839  0.92436127    -0.06700
C1899       C  0.61765752  0.29208595  0.92206889     0.14200
C1900       C  0.62788787  0.30338292  0.93758237    -0.20200
C1901       C  0.63582268  0.29355285  0.95525158    -0.06700
C1902       C  0.63204326  0.27213711  0.95819527     0.14200
C1903       C  0.63865130  0.26110030  0.97770406    -0.23500
H1904       H  0.61948916  0.24434147  0.94452453     0.15500
H1905       H  0.63027274  0.31987158  0.93552401     0.15500
C1906       C  0.60963208  0.30371728  0.90350129    -0.23500
H1907       H  0.63327484  0.24477201  0.97791135     0.05700
H1908       H  0.63200520  0.26903039  0.99144600     0.08900
H1909       H  0.65575270  0.26089647  0.97891531     0.08900
H1910       H  0.60107816  0.29370141  0.89251414     0.08900
H1911       H  0.62274286  0.31100626  0.89512523     0.08900
H1912       H  0.59884033  0.31601941  0.90874194     0.05700
C1913       C  0.55436605  0.22869052  0.87953661    -0.20100
C1914       C  0.57458410  0.22090896  0.88073066    -0.06700
C1915       C  0.57873568  0.20071525  0.87316697     0.14200
C1916       C  0.56268568  0.18914221  0.86412962    -0.20200
C1917       C  0.54277024  0.19738511  0.86203602    -0.06700
C1918       C  0.53842359  0.21719934  0.87023700     0.14200
C1919       C  0.51689911  0.22611002  0.86947914    -0.23500
H1920       H  0.55115991  0.24411462  0.88528880     0.15500
H1921       H  0.56584579  0.17383434  0.85802003     0.15500
C1922       C  0.59995341  0.19112987  0.87466001    -0.23500
H1923       H  0.51604933  0.24140908  0.87728140     0.05700
H1924       H  0.50597419  0.21548037  0.87742726     0.08900
H1925       H  0.51195463  0.22822745  0.85315778     0.08900
H1926       H  0.60529938  0.19111797  0.89097573     0.08900
H1927       H  0.61112843  0.19977780  0.86495906     0.08900
H1928       H  0.59997452  0.17484920  0.86913449     0.05700
C1929       C  0.56453229  0.26408163  0.92586167    -0.20100
C1930       C  0.57494665  0.24542298  0.92230885    -0.06700
C1931       C  0.56946556  0.22774694  0.93387914     0.14200
C1932       C  0.55357956  0.22914561  0.94861458    -0.20200
C1933       C  0.54327264  0.24794371  0.95263550    -0.06700
C1934       C  0.54882339  0.26568966  0.94080999     0.14200
C1935       C  0.53832321  0.28636833  0.94342354    -0.23500
H1936       H  0.56882229  0.27750263  0.91674682     0.15500
H1937       H  0.54967977  0.21541961  0.95745194     0.15500
C1938       C  0.58058019  0.20741446  0.93166397    -0.23500
H1939       H  0.54420546  0.29802583  0.93221709     0.05700
H1940       H  0.54127952  0.29252420  0.95919650     0.08900
H1941       H  0.52144175  0.28471944  0.94076580     0.08900
H1942       H  0.59404661  0.20840651  0.92115472     0.08900
H1943       H  0.56972519  0.19552177  0.92567506     0.08900
H1944       H  0.58647278  0.20239212  0.94702121     0.05700
C1945       C  0.37584855  0.28367184  0.92271917    -0.20100
C1946       C  0.37571333  0.26244116  0.92705915    -0.06700
C1947       C  0.36585651  0.25508528  0.94506429     0.14200
C1948       C  0.35631718  0.26926245  0.95845554    -0.20200
C1949       C  0.35654836  0.29063083  0.95429077    -0.06700
C1950       C  0.36646015  0.29792284  0.93614905     0.14200
C1951       C  0.36624448  0.32046849  0.93023636    -0.23500
H1952       H  0.38306384  0.28904993  0.90853617     0.15500
H1953       H  0.34863532  0.26362039  0.97227709     0.15500
C1954       C  0.36497137  0.23228959  0.94985754    -0.23500
H1955       H  0.37370691  0.32316100  0.91496580     0.05700
H1956       H  0.37477467  0.32973808  0.94189621     0.08900
H1957       H  0.35002178  0.32591740  0.92919293     0.08900
H1958       H  0.38087388  0.22616186  0.95173029     0.08900
H1959       H  0.35715581  0.22393924  0.93702760     0.08900
H1960       H  0.35632329  0.22915129  0.96439669     0.05700
C1961       C  0.42155261  0.19562018  0.88482425    -0.20100
C1962       C  0.42261238  0.21724496  0.88597811    -0.06700
C1963       C  0.43963225  0.22773190  0.87722339     0.14200
C1964       C  0.45527404  0.21623801  0.86752800    -0.20200
C1965       C  0.45420971  0.19455354  0.86627978    -0.06700
C1966       C  0.43724404  0.18408465  0.87526904     0.14200
C1967       C  0.43489827  0.16094491  0.87369082    -0.23500
H1968       H  0.40804976  0.18777050  0.89093227     0.15500
H1969       H  0.46817745  0.22425774  0.86041056     0.15500
C1970       C  0.44078539  0.25102176  0.87702725    -0.23500
H1971       H  0.42018668  0.15551143  0.88071627     0.05700
H1972       H  0.44777021  0.15315680  0.88195763     0.08900
H1973       H  0.43493574  0.15627997  0.85714546     0.08900
H1974       H  0.44161412  0.25695771  0.89307409     0.08900
H1975       H  0.42692527  0.25751806  0.86923630     0.08900
H1976       H  0.45469883  0.25664879  0.86864865     0.05700
C1977       C  0.42640527  0.26052614  0.93194254    -0.20100
C1978       C  0.41835054  0.24090359  0.92751124    -0.06700
C1979       C  0.42619167  0.22354130  0.93820069     0.14200
C1980       C  0.44274148  0.22606015  0.95200765    -0.20200
C1981       C  0.45139066  0.24565039  0.95615521    -0.06700
C1982       C  0.44273518  0.26323062  0.94607536     0.14200
C1983       C  0.45055028  0.28491124  0.94969339    -0.23500
H1984       H  0.42018817  0.27377403  0.92375994     0.15500
H1985       H  0.44863360  0.21247023  0.95989135     0.15500
C1986       C  0.41691943  0.20227605  0.93609087    -0.23500
H1987       H  0.44207858  0.29647525  0.94019294     0.05700
H1988       H  0.46715017  0.28593172  0.94542587     0.08900
H1989       H  0.44835449  0.28924830  0.96618911     0.08900
H1990       H  0.40292396  0.20212503  0.92621444     0.08900
H1991       H  0.41222691  0.19652185  0.95161083     0.08900
H1992       H  0.42856578  0.19150786  0.92949081     0.05700
C1993       C  0.63106465  0.06045088  0.73148369    -0.20100
C1994       C  0.61459610  0.07128988  0.72260628    -0.06700
C1995       C  0.60896562  0.06733842  0.70191379     0.14200
C1996       C  0.62026162  0.05277495  0.69041026    -0.20200
C1997       C  0.63720524  0.04211059  0.69903739    -0.06700
C1998       C  0.64242460  0.04585532  0.72012359     0.14200
C1999       C  0.65979838  0.03473215  0.73104134    -0.23500
H2000       H  0.63533405  0.06382654  0.74737773     0.15500
H2001       H  0.61598171  0.05000880  0.67442034     0.15500
C2002       C  0.59149097  0.07889098  0.69174147    -0.23500
H2003       H  0.66088419  0.03917510  0.74763251     0.10500
H2004       H  0.67481251  0.03869343  0.72371697     0.08900
H2005       H  0.65719265  0.01777335  0.73044776     0.08900
H2006       H  0.59436100  0.09581496  0.69252346     0.08900
H2007       H  0.57680494  0.07519839  0.69973300     0.08900
H2008       H  0.58971139  0.07452956  0.67519355     0.05700
C2009       C  0.55843295  0.13216864  0.75988437    -0.20100
C2010       C  0.56925116  0.11497532  0.76724841    -0.06700
C2011       C  0.56491323  0.10720610  0.78722476     0.14200
C2012       C  0.55015496  0.11734325  0.79956782    -0.20200
C2013       C  0.53971060  0.13515640  0.79252421    -0.06700
C2014       C  0.54349645  0.14217190  0.77195619     0.14200
C2015       C  0.53201381  0.16004333  0.76222091    -0.23500
H2016       H  0.56197186  0.13800912  0.74452981     0.15500
H2017       H  0.54725502  0.11153063  0.81505710     0.15500
C2018       C  0.57611876  0.08889557  0.79634743    -0.23500
H2019       H  0.53635023  0.16230315  0.74571671     0.05700
H2020       H  0.53573444  0.17465992  0.77043586     0.08900
H2021       H  0.51511115  0.15704251  0.76266852     0.08900
H2022       H  0.58816246  0.08256869  0.78593042     0.08900
H2023       H  0.56484854  0.07638326  0.79976316     0.08900
H2024       H  0.58382387  0.09357853  0.81098385     0.05700
C2025       C  0.57659574  0.05389606  0.75316712    -0.20100
C2026       C  0.57174278  0.07304479  0.74417265    -0.06700
C2027       C  0.55177679  0.07620829  0.73580585     0.14200
C2028       C  0.53696389  0.06041904  0.73734100    -0.20200
C2029       C  0.54169143  0.04144263  0.74675144    -0.06700
C2030       C  0.56181407  0.03802716  0.75452036     0.14200
C2031       C  0.56789617  0.01746023  0.76360086    -0.23500
H2032       H  0.59200165  0.05148685  0.75929153     0.15500
H2033       H  0.52167776  0.06283339  0.73087605     0.15500
C2034       C  0.54591195  0.09561536  0.72431037    -0.23500
H2035       H  0.58441880  0.01718521  0.76828163     0.05700
H2036       H  0.56545424  0.00505683  0.75194152     0.08900
H2037       H  0.55838343  0.01423500  0.77754245     0.08900
H2038       H  0.55910440  0.10635216  0.72228376     0.08900
H2039       H  0.53333665  0.10372761  0.73274920     0.08900
H2040       H  0.54030947  0.09150072  0.70857977     0.05700
C2041       C  0.36781945  0.05485106  0.69430509    -0.20100
C2042       C  0.36014876  0.03685688  0.70375435    -0.06700
C2043       C  0.36343810  0.03373146  0.72522168     0.14200
C2044       C  0.37286181  0.04939128  0.73696001    -0.20200
C2045       C  0.37921518  0.06794623  0.72775239    -0.06700
C2046       C  0.37727017  0.07049535  0.70609763     0.14200
C2047       C  0.38522558  0.08965633  0.69543514    -0.23500
H2048       H  0.36576372  0.05698873  0.67777263     0.15500
H2049       H  0.37461549  0.04743573  0.75352580     0.15500
C2050       C  0.35747785  0.01375963  0.73575655    -0.23500
H2051       H  0.38312013  0.08880635  0.67837724     0.05700
H2052       H  0.40198761  0.09149805  0.69865292     0.08900
H2053       H  0.37682211  0.10350661  0.70110282     0.08900
H2054       H  0.36498695  0.00052920  0.72774547     0.08900
H2055       H  0.34045800  0.01171818  0.73549638     0.08900
H2056       H  0.36245925  0.01349695  0.75222471     0.05700
C2057       C  0.42526112  0.10671445  0.79421716    -0.20100
C2058       C  0.42264595  0.11237118  0.77343759    -0.06700
C2059       C  0.43545241  0.12782462  0.76482218     0.14200
C2060       C  0.45012558  0.13768927  0.77737999    -0.20200
C2061       C  0.45263196  0.13247234  0.79841015    -0.06700
C2062       C  0.44012779  0.11644025  0.80684047     0.14200
C2063       C  0.44168453  0.10987393  0.82919309    -0.23500
H2064       H  0.41513849  0.09507282  0.80078612     0.15500
H2065       H  0.45976250  0.14959752  0.77052532     0.15500
C2066       C  0.43405306  0.13433947  0.74242088    -0.23500
H2067       H  0.43005015  0.09786463  0.83317966     0.05700
H2068       H  0.43897674  0.12336209  0.83946295     0.08900
H2069       H  0.45717997  0.10317975  0.83227409     0.08900
H2070       H  0.42258887  0.12527779  0.73345237     0.08900
H2071       H  0.42972297  0.15094692  0.74152893     0.08900
H2072       H  0.44932771  0.13216814  0.73486516     0.05700
C2073       C  0.43424298  0.07050019  0.73506537    -0.20100
C2074       C  0.42019197  0.07000988  0.75151989    -0.06700
C2075       C  0.42171355  0.05428817  0.76659294     0.14200
C2076       C  0.43748833  0.03944916  0.76494178    -0.20200
C2077       C  0.45159227  0.03969579  0.74833171    -0.06700
C2078       C  0.44989320  0.05554090  0.73317036     0.14200
C2079       C  0.46475273  0.05724013  0.71525012    -0.23500
H2080       H  0.43282147  0.08269590  0.72362450     0.15500
H2081       H  0.43854494  0.02738613  0.77658001     0.15500
C2082       C  0.40675731  0.05265240  0.78439404    -0.23500
H2083       H  0.46179396  0.07129266  0.70578096     0.05700
H2084       H  0.46306061  0.04365714  0.70487585     0.08900
H2085       H  0.48086346  0.05815901  0.72111990     0.08900
H2086       H  0.39880009  0.03743265  0.78380699     0.08900
H2087       H  0.41530442  0.05386686  0.79925717     0.08900
H2088       H  0.39478135  0.06492978  0.78409661     0.05700
C2089       C  0.61941520  0.94061470  0.72603177    -0.20100
C2090       C  0.61518621  0.92193607  0.71582071    -0.06700
C2091       C  0.62031070  0.91976477  0.69460695     0.14200
C2092       C  0.62995717  0.93622042  0.68429482    -0.20200
C2093       C  0.63524867  0.95438588  0.69481811    -0.06700
C2094       C  0.62963834  0.95683796  0.71582266     0.14200
C2095       C  0.63431504  0.97652320  0.72742390    -0.23500
H2096       H  0.61557532  0.94214241  0.74231025     0.15500
H2097       H  0.63411392  0.93462156  0.66809727     0.15500
C2098       C  0.61581452  0.90018802  0.68270963    -0.23500
H2099       H  0.62811724  0.97610011  0.74347327     0.05700
H2100       H  0.62721027  0.98990273  0.71929117     0.08900
H2101       H  0.65128444  0.97881662  0.72841516     0.08900
H2102       H  0.59904226  0.89682308  0.68302596     0.08900
H2103       H  0.62441108  0.88696466  0.68943130     0.08900
H2104       H  0.62052018  0.90153629  0.66620725     0.05700
C2105       C  0.57294556  0.88197229  0.78399117    -0.20100
C2106       C  0.57368941  0.87700622  0.76285959    -0.06700
C2107       C  0.56022659  0.86180557  0.75488514     0.14200
C2108       C  0.54654871  0.85171549  0.76829343    -0.20200
C2109       C  0.54596880  0.85618867  0.78961372    -0.06700
C2110       C  0.55923526  0.87176752  0.79753472     0.14200
C2111       C  0.55981386  0.87705436  0.82025720    -0.23500
H2112       H  0.58368039  0.89334468  0.79004027     0.15500
H2113       H  0.53632821  0.84002776  0.76193924     0.15500
C2114       C  0.56011280  0.85550268  0.73238052    -0.23500
H2115       H  0.57190964  0.88874371  0.82376783     0.05700
H2116       H  0.56326355  0.86294148  0.82945925     0.08900
H2117       H  0.54473420  0.88362759  0.82514521     0.08900
H2118       H  0.56388161  0.83878327  0.73110070     0.08900
H2119       H  0.57138240  0.86419184  0.72283719     0.08900
H2120       H  0.54450203  0.85820890  0.72575808     0.05700
C2121       C  0.54610345  0.93921203  0.72617221    -0.20100
C2122       C  0.54423424  0.95109789  0.74434834    -0.06700
C2123       C  0.55802262  0.94707131  0.76102789     0.14200
C2124       C  0.57299762  0.93141295  0.75898921    -0.20200
C2125       C  0.57449668  0.91947953  0.74097058    -0.06700
C2126       C  0.56077354  0.92330483  0.72442864     0.14200
C2127       C  0.56077065  0.91045985  0.70501559    -0.23500
H2128       H  0.53561766  0.94189895  0.71334767     0.15500
H2129       H  0.58375335  0.92842596  0.77149994     0.15500
C2130       C  0.55751835  0.95931040  0.78088903    -0.23500
H2131       H  0.54515607  0.90374353  0.70258139     0.05700
H2132       H  0.57181383  0.89743535  0.70582512     0.08900
H2133       H  0.56479888  0.92034252  0.69152593     0.08900
H2134       H  0.54272593  0.95656931  0.78915056     0.08900
H2135       H  0.55931324  0.97601113  0.77746965     0.08900
H2136       H  0.57021339  0.95476995  0.79155130     0.05700
C2137       C  0.36865576  0.92517884  0.72884525    -0.20100
C2138       C  0.38499162  0.91620892  0.71783648    -0.06700
C2139       C  0.38974273  0.92343400  0.69781993     0.14200
C2140       C  0.37788075  0.93942818  0.68916489    -0.20200
C2141       C  0.36110066  0.94831801  0.69989772    -0.06700
C2142       C  0.35665558  0.94116070  0.72027721     0.14200
C2143       C  0.33940295  0.94999978  0.73327286    -0.23500
H2144       H  0.36504021  0.91929984  0.74416630     0.15500
H2145       H  0.38158337  0.94470298  0.67366496     0.15500
C2146       C  0.40694102  0.91394851  0.68532163    -0.23500
H2147       H  0.33881724  0.94286363  0.74892615     0.05700
H2148       H  0.32427283  0.94699620  0.72574739     0.08900
H2149       H  0.34173249  0.96688826  0.73539659     0.08900
H2150       H  0.40438864  0.89703858  0.68364353     0.08900
H2151       H  0.42183929  0.91676611  0.69320728     0.08900
H2152       H  0.40797854  0.92080192  0.66957010     0.05700
C2153       C  0.44476494  0.86297090  0.79301514    -0.20100
C2154       C  0.46092771  0.85103492  0.78467792    -0.06700
C2155       C  0.46301983  0.84967298  0.76281884     0.14200
C2156       C  0.44821727  0.85911038  0.75007138    -0.20200
C2157       C  0.43189442  0.87055384  0.75844906    -0.06700
C2158       C  0.43014724  0.87263279  0.78012982     0.14200
C2159       C  0.41243505  0.88441214  0.78964928    -0.23500
H2160       H  0.44319704  0.86424567  0.80968689     0.15500
H2161       H  0.44912796  0.85710017  0.73344164     0.15500
C2162       C  0.48098984  0.83876703  0.75265531    -0.23500
H2163       H  0.41323612  0.88437724  0.80683874     0.05700
H2164       H  0.39753457  0.87726496  0.78498902     0.08900
H2165       H  0.41278666  0.90072568  0.78430890     0.08900
H2166       H  0.48021497  0.82189054  0.75570358     0.08900
H2167       H  0.49577280  0.84514861  0.75863265     0.08900
H2168       H  0.48093185  0.84087641  0.73557125     0.05700
C2169       C  0.42212477  0.93113364  0.75160081    -0.20100
C2170       C  0.42769883  0.91421053  0.73918815    -0.06700
C2171       C  0.44701954  0.91432865  0.72896695     0.14200
C2172       C  0.46040214  0.93113656  0.73172720    -0.20200
C2173       C  0.45495037  0.94805802  0.74419271    -0.06700
C2174       C  0.43544461  0.94814817  0.75419114     0.14200
C2175       C  0.42775503  0.96612936  0.76691684    -0.23500
H2176       H  0.40713757  0.93112482  0.75912056     0.15500
H2177       H  0.47520928  0.93114115  0.72381797     0.15500
C2178       C  0.45367205  0.89744161  0.71434418    -0.23500
H2179       H  0.42495006  0.96094606  0.78308027     0.05700
H2180       H  0.41298254  0.97188233  0.76029610     0.08900
H2181       H  0.43864560  0.97933942  0.76728218     0.08900
H2182       H  0.44142251  0.88576290  0.71171155     0.08900
H2183       H  0.46764326  0.88963028  0.72056491     0.08900
H2184       H  0.45756538  0.90426310  0.69903525     0.05700
C2185       C  0.63477295  0.73273246  0.06209062    -0.20100
C2186       C  0.61872475  0.72310714  0.07290421    -0.06700
C2187       C  0.61382254  0.70229168  0.06874761     0.14200
C2188       C  0.62492334  0.69166423  0.05339833    -0.20200
C2189       C  0.64121103  0.70118827  0.04246493    -0.06700
C2190       C  0.64615192  0.72217229  0.04697558     0.14200
C2191       C  0.66335649  0.73380139  0.03629104    -0.23500
H2192       H  0.63873945  0.74858737  0.06590635     0.15500
H2193       H  0.62109920  0.67563573  0.05029302     0.15500
C2194       C  0.59758294  0.69098037  0.08105189    -0.23500
H2195       H  0.66437505  0.75012658  0.04159141     0.05700
H2196       H  0.66062560  0.73411004  0.01933521     0.08900
H2197       H  0.67845742  0.72641642  0.03976878     0.08900
H2198       H  0.58227449  0.69803899  0.07829825     0.08900
H2199       H  0.60131120  0.69172639  0.09782622     0.08900
H2200       H  0.59655844  0.67442137  0.07655234     0.05700
C2201       C  0.55460247  0.75825122  0.12189882    -0.20100
C2202       C  0.57241759  0.76804281  0.11449044    -0.06700
C2203       C  0.57418614  0.78978559  0.11553415     0.14200
C2204       C  0.55854190  0.80120138  0.12526073    -0.20200
C2205       C  0.54141680  0.79122475  0.13401578    -0.06700
C2206       C  0.53888162  0.76963373  0.13147868     0.14200
C2207       C  0.51956722  0.75858896  0.13856261    -0.23500
H2208       H  0.55338498  0.74155745  0.12102187     0.15500
H2209       H  0.56010053  0.81783708  0.12682529     0.15500
C2210       C  0.59263650  0.80089653  0.10663737    -0.23500
H2211       H  0.51970373  0.74200861  0.13401011     0.05700
H2212       H  0.50577211  0.76591233  0.13139242     0.08900
H2213       H  0.51818902  0.75924099  0.15567396     0.08900
H2214       H  0.59386039  0.79751781  0.08984226     0.08900
H2215       H  0.60698009  0.79578054  0.11454071     0.08900
H2216       H  0.59133239  0.81793382  0.10853227     0.05700
C2217       C  0.55797314  0.73152898  0.07635906    -0.20100
C2218       C  0.57555981  0.74391608  0.07391071    -0.06700
C2219       C  0.57743487  0.75653957  0.05614284     0.14200
C2220       C  0.56170123  0.75630404  0.04115213    -0.20200
C2221       C  0.54425595  0.74357681  0.04340642    -0.06700
C2222       C  0.54239275  0.73098876  0.06126145     0.14200
C2223       C  0.52371890  0.71751470  0.06486647    -0.23500
H2224       H  0.55656584  0.72208994  0.09015172     0.15500
H2225       H  0.56318348  0.76596842  0.02749002     0.15500
C2226       C  0.59566799  0.77057660  0.05269368    -0.23500
H2227       H  0.52434831  0.70963968  0.08015747     0.05700
H2228       H  0.52277801  0.70534226  0.05278719     0.08900
H2229       H  0.50955890  0.72718528  0.06447563     0.08900
H2230       H  0.60388548  0.76588357  0.03833449     0.08900
H2231       H  0.60683552  0.77020228  0.06568470     0.08900
H2232       H  0.59020466  0.78677395  0.05093784     0.05700
C2233       C  0.37493839  0.69134242  0.04937530    -0.20100
C2234       C  0.35880521  0.70109281  0.03842293    -0.06700
C2235       C  0.35396140  0.72205395  0.04326943     0.14200
C2236       C  0.36523113  0.73231456  0.05873617    -0.20200
C2237       C  0.38100416  0.72237701  0.06968713    -0.06700
C2238       C  0.38587488  0.70163155  0.06508290     0.14200
C2239       C  0.40196034  0.69002259  0.07728830    -0.23500
H2240       H  0.37878859  0.67537579  0.04599627     0.15500
H2241       H  0.36132067  0.74812340  0.06280796     0.15500
C2242       C  0.33682821  0.73389653  0.03271711    -0.23500
H2243       H  0.40302740  0.67356648  0.07243714     0.05700
H2244       H  0.39808709  0.69040307  0.09404769     0.08900
H2245       H  0.41727829  0.69717663  0.07476502     0.08900
H2246       H  0.32174537  0.72625313  0.03571428     0.08900
H2247       H  0.33984218  0.73481713  0.01580570     0.08900
H2248       H  0.33557316  0.75001663  0.03856680     0.05700
C2249       C  0.44888104  0.76969853  0.14794358    -0.20100
C2250       C  0.45626777  0.78746273  0.13773024    -0.06700
C2251       C  0.44985588  0.79110073  0.11695739     0.14200
C2252       C  0.43522875  0.77784626  0.10779490    -0.20200
C2253       C  0.42713062  0.76085119  0.11855265    -0.06700
C2254       C  0.43456137  0.75633699  0.13865695     0.14200
C2255       C  0.42781443  0.73726703  0.15040142    -0.23500
H2256       H  0.45412296  0.76627119  0.16351135     0.15500
H2257       H  0.42957252  0.78117412  0.09234908     0.15500
C2258       C  0.45830543  0.80865664  0.10409651    -0.23500
H2259       H  0.43633532  0.73555094  0.16524091     0.05700
H2260       H  0.43084338  0.72320264  0.14106305     0.08900
H2261       H  0.41116495  0.73806868  0.15427320     0.08900
H2262       H  0.47540440  0.80742009  0.10309561     0.08900
H2263       H  0.45384051  0.82372341  0.11102866     0.08900
H2264       H  0.45218261  0.80838795  0.08801910     0.05700
C2265       C  0.45841545  0.73208535  0.06058188    -0.20100
C2266       C  0.45456656  0.74322781  0.04233705    -0.06700
C2267       C  0.43550353  0.75369727  0.04004310     0.14200
C2268       C  0.42071628  0.75252439  0.05600484    -0.20200
C2269       C  0.42463087  0.74141187  0.07429584    -0.06700
C2270       C  0.44379726  0.73115891  0.07662190     0.14200
C2271       C  0.44902007  0.71846941  0.09544996    -0.23500
H2272       H  0.47292453  0.72389808  0.06230654     0.15500
H2273       H  0.40601295  0.76038473  0.05432838     0.15500
C2274       C  0.43045123  0.76551764  0.02055758    -0.23500
H2275       H  0.45365511  0.70263859  0.09062416     0.05700
H2276       H  0.43574569  0.71677546  0.10610142     0.08900
H2277       H  0.46206553  0.72578413  0.10389481     0.08900
H2278       H  0.43149073  0.75505434  0.00694674     0.08900
H2279       H  0.44144199  0.77855533  0.01856596     0.08900
H2280       H  0.41458083  0.77207225  0.02104802     0.05700
C2281       C  0.62275346  0.73119644  0.94274051    -0.20100
C2282       C  0.61870463  0.72232039  0.92336776    -0.06700
C2283       C  0.62331903  0.70117739  0.91996276     0.14200
C2284       C  0.63290012  0.68974188  0.93574413    -0.20200
C2285       C  0.63807348  0.69900559  0.95465460    -0.06700
C2286       C  0.63250893  0.71982110  0.95842153     0.14200
C2287       C  0.63685996  0.73008528  0.97893378    -0.23500
H2288       H  0.61909367  0.74737339  0.94529161     0.15500
H2289       H  0.63695288  0.67367979  0.93302149     0.15500
C2290       C  0.61829610  0.69017707  0.90000154    -0.23500
H2291       H  0.63061299  0.74609157  0.97950860     0.05700
H2292       H  0.65378136  0.73101035  0.98153468     0.08900
H2293       H  0.62958886  0.72106705  0.99165152     0.08900
H2294       H  0.63282471  0.68488930  0.89251259     0.08900
H2295       H  0.60969331  0.69999787  0.88888466     0.08900
H2296       H  0.60848348  0.67647998  0.90337436     0.05700
C2297       C  0.55797644  0.76293125  0.87833999    -0.20100
C2298       C  0.57720511  0.77232032  0.88183206    -0.06700
C2299       C  0.58045474  0.79301219  0.87536267     0.14200
C2300       C  0.56463114  0.80350003  0.86482928    -0.20200
C2301       C  0.54601084  0.79357419  0.86005022    -0.06700
C2302       C  0.54236321  0.77325752  0.86732435     0.14200
C2303       C  0.52205162  0.76246131  0.86347174    -0.23500
H2304       H  0.55556495  0.74706844  0.88325664     0.15500
H2305       H  0.56716058  0.81918622  0.85941050     0.15500
C2306       C  0.60060458  0.80408056  0.87927219    -0.23500
H2307       H  0.52158806  0.74693538  0.87086018     0.05700
H2308       H  0.51958348  0.76033804  0.84659579     0.08900
H2309       H  0.50919523  0.77182737  0.86997071     0.08900
H2310       H  0.61345015  0.79621941  0.87108448     0.08900
H2311       H  0.60392565  0.80446318  0.89610232     0.08900
H2312       H  0.60012299  0.82032970  0.87366281     0.05700
C2313       C  0.56763426  0.72856089  0.92560776    -0.20100
C2314       C  0.57843870  0.74713205  0.92287221    -0.06700
C2315       C  0.57381366  0.76415274  0.93572080     0.14200
C2316       C  0.55771085  0.76253489  0.95022701    -0.20200
C2317       C  0.54657601  0.74397279  0.95298295    -0.06700
C2318       C  0.55192385  0.72661388  0.94054388     0.14200
C2319       C  0.54113176  0.70602949  0.94249049    -0.23500
H2320       H  0.57159699  0.71549837  0.91585190     0.15500
H2321       H  0.55426240  0.77582743  0.95987393     0.15500
C2322       C  0.58619669  0.78385215  0.93515414    -0.23500
H2323       H  0.54694983  0.69462684  0.93100268     0.05700
H2324       H  0.52429080  0.70798750  0.93979762     0.08900
H2325       H  0.54390190  0.69940227  0.95811308     0.08900
H2326       H  0.59970564  0.78276518  0.92468700     0.08900
H2327       H  0.59223759  0.78725912  0.95089348     0.08900
H2328       H  0.57619862  0.79685622  0.93004716     0.05700
C2329       C  0.38448654  0.72392595  0.93512634    -0.20100
C2330       C  0.38884724  0.71272192  0.91705269    -0.06700
C2331       C  0.38352911  0.69149403  0.91594525     0.14200
C2332       C  0.37297509  0.68235184  0.93256498    -0.20200
C2333       C  0.36742491  0.69396455  0.95002319    -0.06700
C2334       C  0.37376300  0.71482146  0.95164368     0.14200
C2335       C  0.36932303  0.72748498  0.97076637    -0.23500
H2336       H  0.38865726  0.74015183  0.93594772     0.15500
H2337       H  0.36831582  0.66625707  0.93151553     0.15500
C2338       C  0.38867253  0.67800805  0.89759437    -0.23500
H2339       H  0.37634449  0.74314622  0.96977991     0.05700
H2340       H  0.37580775  0.71960395  0.98461204     0.08900
H2341       H  0.35241277  0.72950252  0.97278374     0.08900
H2342       H  0.39766358  0.68616025  0.88549059     0.08900
H2343       H  0.37416688  0.67214972  0.89051106     0.08900
H2344       H  0.39808267  0.66462030  0.90284292     0.05700
C2345       C  0.46152289  0.76515009  0.85041840    -0.20100
C2346       C  0.46044977  0.78657494  0.85436289    -0.06700
C2347       C  0.44551790  0.79394532  0.86869976     0.14200
C2348       C  0.43165044  0.77985116  0.87783697    -0.20200
C2349       C  0.43246867  0.75868941  0.87321326    -0.06700
C2350       C  0.44770540  0.75119604  0.85958182     0.14200
C2351       C  0.44920843  0.72847950  0.85447353    -0.23500
H2352       H  0.47313821  0.75920535  0.83987596     0.15500
H2353       H  0.41961190  0.78546278  0.88807738     0.15500
C2354       C  0.44345501  0.81657530  0.87392152    -0.23500
H2355       H  0.46216407  0.72519889  0.84365911     0.05700
H2356       H  0.45184826  0.71949636  0.86889058     0.08900
H2357       H  0.43468151  0.72314480  0.84704800     0.08900
H2358       H  0.44052029  0.82563418  0.85959743     0.08900
H2359       H  0.45778700  0.82214626  0.88154694     0.08900
H2360       H  0.43043029  0.81947268  0.88476620     0.05700
C2361       C  0.45447567  0.72265907  0.93953887    -0.20100
C2362       C  0.45647085  0.74152179  0.95029687    -0.06700
C2363       C  0.44413068  0.75858583  0.94393412     0.14200
C2364       C  0.43068403  0.75631588  0.92695078    -0.20200
C2365       C  0.42922063  0.73761927  0.91609206    -0.06700
C2366       C  0.44124025  0.72056667  0.92248997     0.14200
C2367       C  0.44083526  0.70006763  0.91139788    -0.23500
H2368       H  0.46371135  0.70941557  0.94409286     0.15500
H2369       H  0.42092585  0.76909777  0.92225331     0.15500
C2370       C  0.44450854  0.77908247  0.95506959    -0.23500
H2371       H  0.45675576  0.69586090  0.90652285     0.05700
H2372       H  0.43484283  0.68792207  0.92199656     0.08900
H2373       H  0.43114755  0.70031323  0.89727754     0.08900
H2374       H  0.45996790  0.78635388  0.95347310     0.08900
H2375       H  0.44074448  0.77678114  0.97169973     0.08900
H2376       H  0.43302155  0.79009819  0.94857451     0.05700
C2377       C  0.63208138  0.05365989  0.28859596    -0.20100
C2378       C  0.64554527  0.03870565  0.28041219    -0.06700
C2379       C  0.64813136  0.03740248  0.25857930     0.14200
C2380       C  0.63782081  0.05159126  0.24576295    -0.20200
C2381       C  0.62485959  0.06677892  0.25409882    -0.06700
C2382       C  0.62193820  0.06788428  0.27571752     0.14200
C2383       C  0.60885847  0.08461512  0.28531331    -0.23500
H2384       H  0.62998516  0.05466347  0.30522700     0.15500
H2385       H  0.64024842  0.05114150  0.22915374     0.15500
C2386       C  0.66137488  0.02100838  0.24851187    -0.23500
H2387       H  0.60880042  0.08363580  0.30249328     0.05700
H2388       H  0.59269411  0.08313694  0.27994947     0.08900
H2389       H  0.61493190  0.10006297  0.28086324     0.08900
H2390       H  0.65624076  0.00540315  0.25359065     0.08900
H2391       H  0.67785419  0.02337798  0.25263618     0.08900
H2392       H  0.66029702  0.02155426  0.23134044     0.05700
C2393       C  0.56479529  0.12483233  0.22704072    -0.20100
C2394       C  0.57635123  0.11139539  0.21461830    -0.06700
C2395       C  0.57101011  0.10867454  0.19367950     0.14200
C2396       C  0.55441282  0.11991638  0.18541492    -0.20200
C2397       C  0.54311459  0.13408319  0.19753799    -0.06700
C2398       C  0.54821450  0.13624334  0.21886163     0.14200
C2399       C  0.53649410  0.15040109  0.23324563    -0.23500
H2400       H  0.56920119  0.12683199  0.24312604     0.15500
H2401       H  0.55067200  0.11801518  0.16916275     0.15500
C2402       C  0.58309996  0.09424243  0.17995166    -0.23500
H2403       H  0.54200927  0.14906336  0.24949154     0.05700
H2404       H  0.51984822  0.14635623  0.23311748     0.08900
H2405       H  0.53861583  0.16675762  0.22846175     0.08900
H2406       H  0.58204366  0.07827805  0.18613763     0.08900
H2407       H  0.59956305  0.09907879  0.17943315     0.08900
H2408       H  0.57705459  0.09413137  0.16384655     0.05700
C2409       C  0.56441118  0.07340982  0.24959147    -0.20100
C2410       C  0.58079725  0.06902917  0.23605356    -0.06700
C2411       C  0.58121354  0.04988897  0.22549282     0.14200
C2412       C  0.56531692  0.03555721  0.22886737    -0.20200
C2413       C  0.54904957  0.03978490  0.24260909    -0.06700
C2414       C  0.54869189  0.05885759  0.25331877     0.14200
C2415       C  0.53151694  0.06416000  0.26816419    -0.23500
H2416       H  0.56406004  0.08825354  0.25737258     0.15500
H2417       H  0.56555355  0.02096184  0.22056208     0.15500
C2418       C  0.59779957  0.04435525  0.21008680    -0.23500
H2419       H  0.53332134  0.08000252  0.27459773     0.05700
H2420       H  0.53154518  0.05311776  0.28134099     0.08900
H2421       H  0.51639923  0.06337898  0.26005669     0.08900
H2422       H  0.60640802  0.03056276  0.21565217     0.08900
H2423       H  0.60893834  0.05710601  0.20745075     0.08900
H2424       H  0.59058505  0.04061704  0.19493222     0.05700
C2425       C  0.37095348  0.05749052  0.30447261    -0.20100
C2426       C  0.36694070  0.03778523  0.29642364    -0.06700
C2427       C  0.37335623  0.03288613  0.27605435     0.14200
C2428       C  0.38256249  0.04827812  0.26378635    -0.20200
C2429       C  0.38527150  0.06841658  0.27136417    -0.06700
C2430       C  0.38002658  0.07291675  0.29218801     0.14200
C2431       C  0.38371490  0.09379091  0.30193987    -0.23500
H2432       H  0.36635117  0.06108949  0.32022730     0.15500
H2433       H  0.38667292  0.04486050  0.24787415     0.15500
C2434       C  0.37054322  0.01146097  0.26723364    -0.23500
H2435       H  0.36867430  0.10089119  0.30622599     0.05700
H2436       H  0.39217103  0.10459639  0.29164421     0.08900
H2437       H  0.39317766  0.09185732  0.31616131     0.08900
H2438       H  0.35386039  0.00762496  0.26617652     0.08900
H2439       H  0.37839777  0.99996959  0.27732434     0.08900
H2440       H  0.37722492  0.01014401  0.25142969     0.05700
C2441       C  0.44195137  0.11606984  0.22944005    -0.20100
C2442       C  0.42278838  0.11229404  0.22005981    -0.06700
C2443       C  0.41928764  0.11908837  0.19948094     0.14200
C2444       C  0.43508030  0.12962653  0.18891940    -0.20200
C2445       C  0.45387105  0.13419373  0.19867859    -0.06700
C2446       C  0.45749154  0.12709228  0.21906656     0.14200
C2447       C  0.47781512  0.13082293  0.22981731    -0.23500
H2448       H  0.44449310  0.11107182  0.24526638     0.15500
H2449       H  0.43249947  0.13499280  0.17320970     0.15500
C2450       C  0.39902934  0.11531360  0.18851737    -0.23500
H2451       H  0.47830041  0.12342659  0.24535130     0.05700
H2452       H  0.48030744  0.14767287  0.23197548     0.08900
H2453       H  0.49058892  0.12425318  0.22038297     0.08900
H2454       H  0.38640682  0.12399887  0.19618755     0.08900
H2455       H  0.39522204  0.09858397  0.18857547     0.08900
H2456       H  0.39960620  0.12052683  0.17212377     0.05700
C2457       C  0.43661031  0.06896150  0.26292851    -0.20100
C2458       C  0.42481936  0.07098721  0.24482564    -0.06700
C2459       C  0.42913015  0.05803505  0.22780662     0.14200
C2460       C  0.44524874  0.04354362  0.22916159    -0.20200
C2461       C  0.45727903  0.04138256  0.24722275    -0.06700
C2462       C  0.45281653  0.05444185  0.26439901     0.14200
C2463       C  0.46506703  0.05354899  0.28423233    -0.23500
H2464       H  0.43302944  0.07889362  0.27597369     0.15500
H2465       H  0.44825700  0.03361434  0.21597423     0.15500
C2466       C  0.41633941  0.05901679  0.20838321    -0.23500
H2467       H  0.45992658  0.06549821  0.29548675     0.05700
H2468       H  0.48168856  0.05629540  0.28092577     0.08900
H2469       H  0.46300682  0.03823566  0.29174453     0.08900
H2470       H  0.41877473  0.07408594  0.20065344     0.08900
H2471       H  0.39971796  0.05704861  0.21219882     0.08900
H2472       H  0.42074132  0.04673239  0.19718426     0.05700
C2473       C  0.61601750  0.92908065  0.27670550    -0.20100
C2474       C  0.62463667  0.92487832  0.25725400    -0.06700
C2475       C  0.64243681  0.93577570  0.25082284     0.14200
C2476       C  0.65169117  0.94992387  0.26439314    -0.20200
C2477       C  0.64367205  0.95367456  0.28432322    -0.06700
C2478       C  0.62515667  0.94341082  0.29031703     0.14200
C2479       C  0.61503261  0.94692678  0.31105943    -0.23500
H2480       H  0.60246635  0.92052591  0.28159296     0.15500
H2481       H  0.66540998  0.95809186  0.25928743     0.15500
C2482       C  0.65161394  0.93285336  0.22952204    -0.23500
H2483       H  0.60105255  0.93714686  0.31311115     0.05700
H2484       H  0.61004453  0.96330969  0.31241749     0.08900
H2485       H  0.62599327  0.94301168  0.32370192     0.08900
H2486       H  0.63974001  0.93608345  0.21755989     0.08900
H2487       H  0.65744388  0.91684568  0.22761681     0.08900
H2488       H  0.66482768  0.94348367  0.22675107     0.05700
C2489       C  0.56024135  0.87325423  0.22809995    -0.20100
C2490       C  0.57743895  0.87928296  0.21633464    -0.06700
C2491       C  0.57785996  0.87510392  0.19483304     0.14200
C2492       C  0.56120214  0.86464387  0.18569298    -0.20200
C2493       C  0.54443936  0.85774893  0.19760126    -0.06700
C2494       C  0.54373237  0.86241916  0.21901155     0.14200
C2495       C  0.52551974  0.85631919  0.23225331    -0.23500
H2496       H  0.56009945  0.87629988  0.24459744     0.15500
H2497       H  0.56158767  0.86118058  0.16926188     0.15500
C2498       C  0.59582588  0.88159697  0.18143069    -0.23500
H2499       H  0.52712457  0.86209969  0.24838127     0.05700
H2500       H  0.52418199  0.83921709  0.23296554     0.08900
H2501       H  0.51110933  0.86293699  0.22564943     0.08900
H2502       H  0.61013933  0.87356320  0.18638224     0.08900
H2503       H  0.59809221  0.89856803  0.18257321     0.08900
H2504       H  0.59318695  0.87772628  0.16487402     0.05700
C2505       C  0.56633023  0.91990591  0.25588262    -0.20100
C2506       C  0.58034953  0.92115444  0.23936361    -0.06700
C2507       C  0.57829907  0.93724189  0.22474947     0.14200
C2508       C  0.56229814  0.95173374  0.22699428    -0.20200
C2509       C  0.54831614  0.95077249  0.24366292    -0.06700
C2510       C  0.55034505  0.93451128  0.25828932     0.14200
C2511       C  0.53540079  0.93200390  0.27602928    -0.23500
H2512       H  0.56799651  0.90740397  0.26694990     0.15500
H2513       H  0.56091149  0.96408065  0.21569083     0.15500
C2514       C  0.59277396  0.93952176  0.20664062    -0.23500
H2515       H  0.53662711  0.94539448  0.28671206     0.05700
H2516       H  0.53865439  0.91779301  0.28516031     0.08900
H2517       H  0.51936474  0.93085287  0.26998821     0.08900
H2518       H  0.60479257  0.92732930  0.20622896     0.08900
H2519       H  0.60066104  0.95476298  0.20749595     0.08900
H2520       H  0.58385174  0.93866599  0.19197193     0.05700
C2521       C  0.38963014  0.91961506  0.29946946    -0.20100
C2522       C  0.38857598  0.91968703  0.27781449    -0.06700
C2523       C  0.37744283  0.93530540  0.26746276     0.14200
C2524       C  0.36753844  0.95061716  0.27911540    -0.20200
C2525       C  0.36836817  0.95054252  0.30085657    -0.06700
C2526       C  0.37980570  0.93498082  0.31120487     0.14200
C2527       C  0.38083686  0.93374936  0.33451057    -0.23500
H2528       H  0.39764239  0.90709499  0.30724353     0.15500
H2529       H  0.35877883  0.96254049  0.27119452     0.15500
C2530       C  0.37516462  0.93530254  0.24422836    -0.23500
H2531       H  0.38951725  0.91988464  0.33980167     0.05700
H2532       H  0.36497296  0.93282779  0.34104190     0.08900
H2533       H  0.38889017  0.94756129  0.34076415     0.08900
H2534       H  0.36791478  0.92060784  0.23906475     0.08900
H2535       H  0.39052801  0.93693028  0.23685212     0.08900
H2536       H  0.36533767  0.94830589  0.23876759     0.05700
C2537       C  0.42745058  0.87682161  0.21054181    -0.20100
C2538       C  0.43042365  0.87473979  0.23192245    -0.06700
C2539       C  0.44721430  0.86321560  0.23955284     0.14200
C2540       C  0.46052558  0.85353669  0.22552538    -0.20200
C2541       C  0.45742019  0.85510539  0.20402884    -0.06700
C2542       C  0.44084684  0.86722664  0.19639070     0.14200
C2543       C  0.43657425  0.86936838  0.17353976    -0.23500
H2544       H  0.41424908  0.88552887  0.20495023     0.15500
H2545       H  0.47339338  0.84453798  0.23142593     0.15500
C2546       C  0.45084482  0.86077329  0.26246941    -0.23500
H2547       H  0.42232578  0.87849485  0.17055335     0.05700
H2548       H  0.43448286  0.85382531  0.16650497     0.08900
H2549       H  0.44958967  0.87751303  0.16585416     0.08900
H2550       H  0.43713364  0.85355899  0.26988964     0.08900
H2551       H  0.45367091  0.87616543  0.26945748     0.08900
H2552       H  0.46450007  0.85087840  0.26576105     0.05700
C2553       C  0.43203486  0.92713132  0.23438072    -0.20100
C2554       C  0.42955693  0.91716010  0.25348009    -0.06700
C2555       C  0.44192661  0.92325578  0.27040799     0.14200
C2556       C  0.45591841  0.93964650  0.26801722    -0.20200
C2557       C  0.45834990  0.95000379  0.24897379    -0.06700
C2558       C  0.44613262  0.94351139  0.23183181     0.14200
C2559       C  0.44737524  0.95378271  0.21088304    -0.23500
H2560       H  0.42255873  0.92219578  0.22145988     0.15500
H2561       H  0.46532343  0.94404132  0.28119933     0.15500
C2562       C  0.44130772  0.91236626  0.29101849    -0.23500
H2563       H  0.43603096  0.94715713  0.19979687     0.05700
H2564       H  0.46298240  0.95149166  0.20411074     0.08900
H2565       H  0.44396987  0.97056188  0.21238841     0.08900
H2566       H  0.43081263  0.89882798  0.29106501     0.08900
H2567       H  0.43622338  0.92336220  0.30321404     0.08900
H2568       H  0.45702221  0.90665946  0.29494884     0.05700
C2569       C  0.26290743  0.05234541  0.62338777    -0.20100
C2570       C  0.27294482  0.07093180  0.61846098    -0.06700
C2571       C  0.29410253  0.07335713  0.62337366     0.14200
C2572       C  0.30462789  0.05720681  0.63338184    -0.20200
C2573       C  0.29439246  0.03894785  0.63908296    -0.06700
C2574       C  0.27333673  0.03633411  0.63377421     0.14200
C2575       C  0.26196403  0.01655595  0.63857549    -0.23500
H2576       H  0.24669417  0.05057697  0.61960409     0.15500
H2577       H  0.32083811  0.05903198  0.63725386     0.15500
C2578       C  0.30570062  0.09283803  0.61789359    -0.23500
H2579       H  0.24585922  0.01687766  0.63260447     0.05700
H2580       H  0.26121232  0.01415516  0.65558023     0.08900
H2581       H  0.27007622  0.00329460  0.63124501     0.08900
H2582       H  0.29916480  0.10622586  0.62640875     0.08900
H2583       H  0.30458369  0.09571567  0.60097139     0.08900
H2584       H  0.32233412  0.09169332  0.62202269     0.05700
C2585       C  0.22521933  0.13185179  0.53918844    -0.20100
C2586       C  0.20388655  0.13466909  0.54213600    -0.06700
C2587       C  0.19451671  0.12710695  0.56041404     0.14200
C2588       C  0.20685401  0.11740776  0.57546272    -0.20200
C2589       C  0.22809918  0.11418059  0.57231526    -0.06700
C2590       C  0.23744718  0.12173722  0.55404975     0.14200
C2591       C  0.26043876  0.12029069  0.55068236    -0.23500
H2592       H  0.23240886  0.13785450  0.52524598     0.15500
H2593       H  0.19993456  0.11249076  0.58995855     0.15500
C2594       C  0.17178201  0.13007283  0.56458796    -0.23500
H2595       H  0.26526521  0.12812426  0.53614056     0.05700
H2596       H  0.26512284  0.10388994  0.54948146     0.08900
H2597       H  0.26875213  0.12771956  0.56376186     0.08900
H2598       H  0.16255630  0.12165945  0.55279801     0.08900
H2599       H  0.16787789  0.14680476  0.56407590     0.08900
H2600       H  0.16728859  0.12401416  0.58005866     0.05700
C2601       C  0.23505990  0.04414227  0.55583177    -0.20100
C2602       C  0.25377612  0.03989156  0.54548905    -0.06700
C2603       C  0.27172371  0.05117124  0.55144369     0.14200
C2604       C  0.27009829  0.06667959  0.56668306    -0.20200
C2605       C  0.25115503  0.07148245  0.57606473    -0.06700
C2606       C  0.23362545  0.05948141  0.57118756     0.14200
C2607       C  0.21362694  0.06205214  0.58281589    -0.23500
H2608       H  0.22135746  0.03527990  0.55203467     0.15500
H2609       H  0.28364331  0.07549074  0.57113295     0.15500
C2610       C  0.29263711  0.04734601  0.54186526    -0.23500
H2611       H  0.20214124  0.05005837  0.57841385     0.05700
H2612       H  0.20669109  0.07721931  0.57931652     0.08900
H2613       H  0.21638827  0.06077097  0.59973059     0.08900
H2614       H  0.29193278  0.05007320  0.52489553     0.08900
H2615       H  0.29766735  0.03123463  0.54507948     0.08900
H2616       H  0.30463169  0.05783530  0.54830373     0.05700
C2617       C  0.30907929  0.05039369  0.37715806    -0.20100
C2618       C  0.29970534  0.03895168  0.36114292    -0.06700
C2619       C  0.27841382  0.04228049  0.35675773     0.14200
C2620       C  0.26747078  0.05711847  0.36813457    -0.20200
C2621       C  0.27716390  0.06896631  0.38336956    -0.06700
C2622       C  0.29812463  0.06557325  0.38810239     0.14200
C2623       C  0.30912299  0.07843095  0.40414087    -0.23500
H2624       H  0.32526990  0.04797888  0.38072258     0.15500
H2625       H  0.25143991  0.06029308  0.36439066     0.15500
C2626       C  0.26695252  0.03081454  0.33996575    -0.23500
H2627       H  0.32567016  0.07405187  0.40555629     0.05700
H2628       H  0.30175300  0.07615158  0.41946601     0.08900
H2629       H  0.30835279  0.09505772  0.39985832     0.08900
H2630       H  0.25029474  0.03498999  0.33954675     0.08900
H2631       H  0.26791568  0.01394188  0.34266819     0.08900
H2632       H  0.27356639  0.03470907  0.32458442     0.05700
C2633       C  0.21336589  0.10956419  0.42723844    -0.20100
C2634       C  0.23381083  0.11638441  0.42523665    -0.06700
C2635       C  0.24134889  0.13218933  0.43814103     0.14200
C2636       C  0.22807360  0.14116054  0.45262403    -0.20200
C2637       C  0.20723007  0.13507129  0.45432989    -0.06700
C2638       C  0.19982635  0.11880962  0.44153909     0.14200
C2639       C  0.17771152  0.11150720  0.44223095    -0.23500
H2640       H  0.20782355  0.09740818  0.41708554     0.15500
H2641       H  0.23409524  0.15328028  0.46253223     0.15500
C2642       C  0.26342396  0.13961286  0.43671369    -0.23500
H2643       H  0.17467296  0.09923230  0.43057245     0.05700
H2644       H  0.16713827  0.12462989  0.43887888     0.08900
H2645       H  0.17419385  0.10491551  0.45771701     0.08900
H2646       H  0.26634958  0.14653686  0.42126110     0.08900
H2647       H  0.27416297  0.12644497  0.43916238     0.08900
H2648       H  0.26691602  0.15158923  0.44854730     0.05700
C2649       C  0.23874839  0.04082508  0.43810682    -0.20100
C2650       C  0.25179253  0.04226761  0.45545646    -0.06700
C2651       C  0.26461471  0.05987277  0.45773289     0.14200
C2652       C  0.26481528  0.07502133  0.44213803    -0.20200
C2653       C  0.25267340  0.07297544  0.42430949    -0.06700
C2654       C  0.23903520  0.05602047  0.42250583     0.14200
C2655       C  0.22448494  0.05375715  0.40446821    -0.23500
H2656       H  0.22855281  0.02759918  0.43652193     0.15500
H2657       H  0.27471978  0.08843765  0.44364621     0.15500
C2658       C  0.27764007  0.06310297  0.47683582    -0.23500
H2659       H  0.22798625  0.03921132  0.39601142     0.05700
H2660       H  0.22558313  0.06684386  0.39340828     0.08900
H2661       H  0.20832392  0.05312271  0.41025202     0.08900
H2662       H  0.28968022  0.05092919  0.47793045     0.08900
H2663       H  0.26768635  0.06261270  0.49085903     0.08900
H2664       H  0.28564270  0.07831150  0.47655908     0.05700
C2665       C  0.26417763  0.92887580  0.62997449    -0.20100
C2666       C  0.27459124  0.91829977  0.61423269    -0.06700
C2667       C  0.29515451  0.92360424  0.60941688     0.14200
C2668       C  0.30494895  0.93936669  0.62068383    -0.20200
C2669       C  0.29477482  0.94983060  0.63688217    -0.06700
C2670       C  0.27383561  0.94467835  0.64129286     0.14200
C2671       C  0.26132483  0.95555815  0.65774518    -0.23500
H2672       H  0.24846734  0.92438234  0.63373550     0.15500
H2673       H  0.32088047  0.94313202  0.61710966     0.15500
C2674       C  0.30706932  0.91214463  0.59297355    -0.23500
H2675       H  0.24501475  0.95016966  0.65800684     0.05700
H2676       H  0.26111493  0.97245709  0.65470735     0.08900
H2677       H  0.26793129  0.95240055  0.67329101     0.08900
H2678       H  0.29971436  0.91453997  0.57769720     0.08900
H2679       H  0.30738634  0.89534816  0.59659889     0.08900
H2680       H  0.32328964  0.91767194  0.59183748     0.05700
C2681       C  0.21563512  0.88098067  0.56332892    -0.20100
C2682       C  0.23525702  0.87245042  0.56659082    -0.06700
C2683       C  0.24205230  0.85589066  0.55419471     0.14200
C2684       C  0.22853640  0.84736743  0.53959464    -0.20200
C2685       C  0.20823799  0.85489698  0.53704881    -0.06700
C2686       C  0.20197579  0.87250019  0.54868111     0.14200
C2687       C  0.18097017  0.88231156  0.54626729    -0.23500
H2688       H  0.21071426  0.89388870  0.57285109     0.15500
H2689       H  0.23390197  0.83446556  0.53031985     0.15500
C2690       C  0.26363828  0.84730382  0.55619980    -0.23500
H2691       H  0.17895799  0.89581651  0.55672707     0.05700
H2692       H  0.16871074  0.87091837  0.55012500     0.08900
H2693       H  0.17898273  0.88795011  0.53013891     0.08900
H2694       H  0.26593868  0.84062456  0.57185898     0.08900
H2695       H  0.27508931  0.85984631  0.55361779     0.08900
H2696       H  0.26667086  0.83488592  0.54469447     0.05700
C2697       C  0.26601230  0.91419118  0.55321896    -0.20100
C2698       C  0.25395704  0.91575478  0.57115721    -0.06700
C2699       C  0.24086538  0.93300547  0.57383303     0.14200
C2700       C  0.24098715  0.94886088  0.55896900    -0.20200
C2701       C  0.25368470  0.94773984  0.54134036    -0.06700
C2702       C  0.26607935  0.92989193  0.53821452     0.14200
C2703       C  0.27897120  0.92632544  0.51904833    -0.23500
H2704       H  0.27550198  0.90054259  0.55098461     0.15500
H2705       H  0.23112955  0.96225333  0.56121796     0.15500
C2706       C  0.22619707  0.93479493  0.59184439    -0.23500
H2707       H  0.29557751  0.92571869  0.52336918     0.05700
H2708       H  0.27685987  0.93826645  0.50695889     0.08900
H2709       H  0.27458067  0.91130848  0.51192647     0.08900
H2710       H  0.23022211  0.94861682  0.60122927     0.08900
H2711       H  0.22648362  0.92098964  0.60202930     0.08900
H2712       H  0.21015808  0.93652049  0.58595897     0.05700
C2713       C  0.26924861  0.93968240  0.37810808    -0.20100
C2714       C  0.27826495  0.92055643  0.38272832    -0.06700
C2715       C  0.29950783  0.91731864  0.37869936     0.14200
C2716       C  0.31114115  0.93329045  0.36965256    -0.20200
C2717       C  0.30176490  0.95195246  0.36382725    -0.06700
C2718       C  0.28066386  0.95534402  0.36842759     0.14200
C2719       C  0.27006368  0.97536561  0.36301860    -0.23500
H2720       H  0.25290101  0.94195851  0.38104622     0.15500
H2721       H  0.32736315  0.93084671  0.36617695     0.15500
C2722       C  0.30987561  0.89701558  0.38359396    -0.23500
H2723       H  0.25384298  0.97574138  0.36867482     0.05700
H2724       H  0.26967415  0.97727574  0.34594757     0.08900
H2725       H  0.27848455  0.98851621  0.37019003     0.08900
H2726       H  0.30256966  0.88431396  0.37466266     0.08900
H2727       H  0.30857213  0.89366464  0.40037347     0.08900
H2728       H  0.32657227  0.89729697  0.37956398     0.05700
C2729       C  0.23589017  0.87144416  0.43905390    -0.20100
C2730       C  0.22632520  0.87904467  0.42119607    -0.06700
C2731       C  0.20473936  0.87698323  0.41872601     0.14200
C2732       C  0.19327948  0.86645405  0.43394859    -0.20200
C2733       C  0.20311639  0.85769580  0.45123878    -0.06700
C2734       C  0.22459698  0.86075643  0.45412860     0.14200
C2735       C  0.23570797  0.85307802  0.47320051    -0.23500
H2736       H  0.25245582  0.87314555  0.44081526     0.15500
H2737       H  0.17675285  0.86444114  0.43201348     0.15500
C2738       C  0.19386744  0.88593909  0.40014016    -0.23500
H2739       H  0.25213671  0.85809142  0.47342822     0.05700
H2740       H  0.23557507  0.83592095  0.47368437     0.08900
H2741       H  0.22810921  0.85931616  0.48731298     0.08900
H2742       H  0.19966103  0.87855030  0.38575178     0.08900
H2743       H  0.19675337  0.90286415  0.39936184     0.08900
H2744       H  0.17689546  0.88342768  0.40092668     0.05700
C2745       C  0.23588100  0.93326389  0.42298532    -0.20100
C2746       C  0.25212150  0.91894975  0.42253078    -0.06700
C2747       C  0.26788875  0.92018296  0.43756578     0.14200
C2748       C  0.26731842  0.93605712  0.45241151    -0.20200
C2749       C  0.25112048  0.95058984  0.45291844    -0.06700
C2750       C  0.23514582  0.94910768  0.43791009     0.14200
C2751       C  0.21768574  0.96452834  0.43693083    -0.23500
H2752       H  0.22390023  0.93214913  0.41131124     0.15500
H2753       H  0.27948978  0.93683027  0.46393346     0.15500
C2754       C  0.28521041  0.90468821  0.43863265    -0.23500
H2755       H  0.22401248  0.98045195  0.43555043     0.05700
H2756       H  0.20796003  0.96330617  0.45104019     0.08900
H2757       H  0.20748513  0.96174362  0.42337194     0.08900
H2758       H  0.30020984  0.91266317  0.43613177     0.08900
H2759       H  0.28360768  0.89222515  0.42696924     0.08900
H2760       H  0.28531389  0.89726945  0.45415783     0.05700
C2761       C  0.06319217  0.73617920  0.63410729    -0.20100
C2762       C  0.07507219  0.72646910  0.61885378    -0.06700
C2763       C  0.07141645  0.70552069  0.61405359     0.14200
C2764       C  0.05554356  0.69484408  0.62435741    -0.20200
C2765       C  0.04352979  0.70443129  0.63981950    -0.06700
C2766       C  0.04757181  0.72551034  0.64478980     0.14200
C2767       C  0.03579083  0.73708868  0.66129804    -0.23500
H2768       H  0.06651110  0.75217284  0.63796936     0.15500
H2769       H  0.05284086  0.67872788  0.62058145     0.15500
C2770       C  0.08466364  0.69421680  0.59858065    -0.23500
H2771       H  0.04063123  0.75355387  0.66231172     0.05700
H2772       H  0.03867311  0.72997958  0.67668350     0.08900
H2773       H  0.01903371  0.73689047  0.65779559     0.08900
H2774       H  0.10115674  0.69506892  0.60327603     0.08900
H2775       H  0.08273524  0.70131387  0.58311008     0.08900
H2776       H  0.08031592  0.67763320  0.59734052     0.05700
C2777       C  0.13930367  0.75919247  0.56311200    -0.20100
C2778       C  0.12129434  0.76720167  0.57204196    -0.06700
C2779       C  0.11341195  0.78629282  0.56491078     0.14200
C2780       C  0.12380842  0.79683362  0.54896107    -0.20200
C2781       C  0.14226651  0.78915368  0.54024285    -0.06700
C2782       C  0.14987518  0.76970594  0.54731856     0.14200
C2783       C  0.16913066  0.75969169  0.53870299    -0.23500
H2784       H  0.14529940  0.74458263  0.56881326     0.15500
H2785       H  0.11765601  0.81155313  0.54377193     0.15500
C2786       C  0.09477567  0.79657230  0.57440968    -0.23500
H2787       H  0.17232634  0.74447080  0.54604846     0.05700
H2788       H  0.18276895  0.76969436  0.54165346     0.08900
H2789       H  0.16726542  0.75691144  0.52182962     0.08900
H2790       H  0.08231969  0.79782089  0.56263837     0.08900
H2791       H  0.08868287  0.78813216  0.58802553     0.08900
H2792       H  0.09900469  0.81235307  0.57973880     0.05700
C2793       C  0.06480613  0.73781774  0.54130477    -0.20100
C2794       C  0.04640313  0.74858178  0.54529473    -0.06700
C2795       C  0.04358326  0.75822890  0.56473853     0.14200
C2796       C  0.05930783  0.75685354  0.57969892    -0.20200
C2797       C  0.07793572  0.74652058  0.57551461    -0.06700
C2798       C  0.08063803  0.73671736  0.55612000     0.14200
C2799       C  0.09970218  0.72444948  0.55078286    -0.23500
H2800       H  0.06686479  0.73021886  0.52646295     0.15500
H2801       H  0.05729620  0.76419952  0.59465426     0.15500
C2802       C  0.02386338  0.76952701  0.56991319    -0.23500
H2803       H  0.10780535  0.73187266  0.53755589     0.05700
H2804       H  0.09519616  0.70849256  0.54625934     0.08900
H2805       H  0.11061790  0.72312123  0.56393023     0.08900
H2806       H  0.01047490  0.75888322  0.56831724     0.08900
H2807       H  0.02182404  0.78288535  0.55929580     0.08900
H2808       H  0.02400657  0.77554593  0.58603440     0.05700
C2809       C  0.06227452  0.68666650  0.36672849    -0.20100
C2810       C  0.04311280  0.69582418  0.36263141    -0.06700
C2811       C  0.03907503  0.71620424  0.36941242     0.14200
C2812       C  0.05489187  0.72749615  0.37899475    -0.20200
C2813       C  0.07456671  0.71886186  0.38177412    -0.06700
C2814       C  0.07819167  0.69801604  0.37611036     0.14200
C2815       C  0.09874293  0.68765153  0.37985651    -0.23500
H2816       H  0.06504041  0.67086432  0.36179434     0.15500
H2817       H  0.05218114  0.74345204  0.38340222     0.15500
C2818       C  0.01810634  0.72600393  0.36660166    -0.23500
H2819       H  0.09850252  0.67114509  0.37505430     0.05700
H2820       H  0.10258512  0.68816434  0.39657673     0.08900
H2821       H  0.11111528  0.69542753  0.37088945     0.08900
H2822       H  0.00616134  0.71635102  0.37431890     0.08900
H2823       H  0.01441471  0.72737320  0.34987257     0.08900
H2824       H  0.01745084  0.74175757  0.37346192     0.05700
C2825       C  0.12311954  0.75943723  0.43970026    -0.20100
C2826       C  0.11709087  0.76915411  0.42129036    -0.06700
C2827       C  0.12024094  0.79061177  0.41871065     0.14200
C2828       C  0.13012900  0.80179436  0.43446849    -0.20200
C2829       C  0.13728002  0.79180255  0.45236495    -0.06700
C2830       C  0.13331542  0.77047973  0.45528867     0.14200
C2831       C  0.13959728  0.75935093  0.47486014    -0.23500
H2832       H  0.12056189  0.74296465  0.44153218     0.15500
H2833       H  0.13302448  0.81820380  0.43247158     0.15500
C2834       C  0.11316712  0.80168188  0.39942909    -0.23500
H2835       H  0.13420865  0.74302384  0.47491305     0.05700
H2836       H  0.13274749  0.76723453  0.48852591     0.08900
H2837       H  0.15667853  0.75914649  0.47635341     0.08900
H2838       H  0.09627562  0.79942732  0.39735903     0.08900
H2839       H  0.12143400  0.79554164  0.38568477     0.08900
H2840       H  0.11624930  0.81857269  0.40030365     0.05700
C2841       C  0.06365728  0.76223425  0.42329181    -0.20100
C2842       C  0.07659260  0.74491505  0.42196438    -0.06700
C2843       C  0.07451580  0.72884063  0.43659532     0.14200
C2844       C  0.05937547  0.73037432  0.45211980    -0.20200
C2845       C  0.04639269  0.74779566  0.45368746    -0.06700
C2846       C  0.04845790  0.76386325  0.43879316     0.14200
C2847       C  0.03429389  0.78239555  0.43849928    -0.23500
H2848       H  0.06538789  0.77442410  0.41188561     0.15500
H2849       H  0.05800435  0.71796184  0.46334571     0.15500
C2850       C  0.08843602  0.71019219  0.43657623    -0.23500
H2851       H  0.03732813  0.79254852  0.42493898     0.05700
H2852       H  0.03665552  0.79186488  0.45263517     0.08900
H2853       H  0.01794622  0.77720532  0.43758746     0.08900
H2854       H  0.09614533  0.70877949  0.45188188     0.08900
H2855       H  0.10074153  0.71121915  0.42469846     0.08900
H2856       H  0.07913733  0.69604506  0.43366667     0.05700
C2857       C  0.94260966  0.73873781  0.62387096    -0.20100
C2858       C  0.92450755  0.72938485  0.61659518    -0.06700
C2859       C  0.92186251  0.70779199  0.61861787     0.14200
C2860       C  0.93733147  0.69603155  0.62830887    -0.20200
C2861       C  0.95500432  0.70551136  0.63655870    -0.06700
C2862       C  0.95785406  0.72709045  0.63401880     0.14200
C2863       C  0.97709649  0.73783503  0.64155134    -0.23500
H2864       H  0.94448621  0.75533293  0.62220139     0.15500
H2865       H  0.93529090  0.67947152  0.63011693     0.15500
C2866       C  0.90271851  0.69717905  0.61064202    -0.23500
H2867       H  0.97714974  0.75451977  0.63738598     0.05700
H2868       H  0.99086604  0.73053054  0.63433761     0.08900
H2869       H  0.97819517  0.73675292  0.65866891     0.08900
H2870       H  0.90100495  0.70016083  0.59379660     0.08900
H2871       H  0.88887501  0.70308401  0.61889450     0.08900
H2872       H  0.90341304  0.68016530  0.61302277     0.05700
C2873       C  0.87981805  0.76802635  0.55375888    -0.20100
C2874       C  0.88323024  0.77774577  0.57287166    -0.06700
C2875       C  0.87726365  0.79865130  0.57554818     0.14200
C2876       C  0.86759342  0.80914891  0.55916188    -0.20200
C2877       C  0.86318022  0.79909173  0.54045424    -0.06700
C2878       C  0.86968784  0.77839205  0.53753968     0.14200
C2879       C  0.86620595  0.76727725  0.51730751    -0.23500
H2880       H  0.88428447  0.75197322  0.55182472     0.15500
H2881       H  0.86274849  0.82508472  0.56121723     0.15500
C2882       C  0.88099731  0.81000765  0.59560970    -0.23500
H2883       H  0.87310266  0.75153013  0.51742992     0.05700
H2884       H  0.87343056  0.77615578  0.50447040     0.08900
H2885       H  0.84940300  0.76558019  0.51431629     0.08900
H2886       H  0.89771114  0.80991328  0.59936049     0.08900
H2887       H  0.87224787  0.80266279  0.60841305     0.08900
H2888       H  0.87593695  0.82641025  0.59465829     0.05700
C2889       C  0.92630870  0.73524755  0.56333582    -0.20100
C2890       C  0.92443284  0.75311506  0.57543968    -0.06700
C2891       C  0.93834142  0.76962423  0.57232500     0.14200
C2892       C  0.95347160  0.76808746  0.55678113    -0.20200
C2893       C  0.95555112  0.75015010  0.54454891    -0.06700
C2894       C  0.94162805  0.73346078  0.54795949     0.14200
C2895       C  0.94228876  0.71390374  0.53524398    -0.23500
H2896       H  0.91553358  0.72267833  0.56591885     0.15500
H2897       H  0.96406893  0.78090508  0.55458735     0.15500
C2898       C  0.93803176  0.78874139  0.58561387    -0.23500
H2899       H  0.92952411  0.70316134  0.53937655     0.05700
H2900       H  0.95702742  0.70556929  0.53803529     0.08900
H2901       H  0.94073765  0.71771950  0.51853690     0.08900
H2902       H  0.95346549  0.79097001  0.59280804     0.08900
H2903       H  0.92661056  0.78770999  0.59835083     0.08900
H2904       H  0.93432990  0.80244143  0.57590912     0.05700
C2905       C  0.92675305  0.70730593  0.38168301    -0.20100
C2906       C  0.92935310  0.72869885  0.37928108    -0.06700
C2907       C  0.94624693  0.73637870  0.36789746     0.14200
C2908       C  0.95993650  0.72242544  0.35860078    -0.20200
C2909       C  0.95720073  0.70092348  0.36048115    -0.06700
C2910       C  0.94059410  0.69323677  0.37255819     0.14200
C2911       C  0.93675333  0.67037144  0.37511575    -0.23500
H2912       H  0.91352901  0.70162333  0.39030439     0.15500
H2913       H  0.97277359  0.72838837  0.34959733     0.15500
C2914       C  0.94953356  0.75927939  0.36509177    -0.23500
H2915       H  0.92246017  0.66727634  0.38414735     0.05700
H2916       H  0.94982698  0.66313623  0.38356974     0.08900
H2917       H  0.93499421  0.66298497  0.35968098     0.08900
H2918       H  0.95204370  0.76657502  0.38040478     0.08900
H2919       H  0.93579645  0.76632670  0.35756844     0.08900
H2920       H  0.96326526  0.76262684  0.35530804     0.05700
C2921       C  0.88696563  0.79794313  0.42098851    -0.20100
C2922       C  0.88692485  0.77628189  0.42228576    -0.06700
C2923       C  0.87682461  0.76645707  0.43898562     0.14200
C2924       C  0.86653188  0.77857990  0.45370444    -0.20200
C2925       C  0.86619116  0.80028229  0.45229913    -0.06700
C2926       C  0.87702415  0.81013919  0.43599826     0.14200
C2927       C  0.87738616  0.83335179  0.43374121    -0.23500
H2928       H  0.89438976  0.80532968  0.40787052     0.15500
H2929       H  0.85839141  0.77093726  0.46625548     0.15500
C2930       C  0.87585449  0.74325198  0.44134915    -0.23500
H2931       H  0.88584998  0.83826202  0.41958863     0.05700
H2932       H  0.88532264  0.84039321  0.44725227     0.08900
H2933       H  0.86134430  0.83938653  0.43267510     0.08900
H2934       H  0.88398921  0.73482921  0.42882615     0.08900
H2935       H  0.85945645  0.73816266  0.44127905     0.08900
H2936       H  0.88300630  0.73872308  0.45631823     0.05700
C2937       C  0.93133568  0.73365654  0.43093717    -0.20100
C2938       C  0.92829128  0.75244516  0.42056695    -0.06700
C2939       C  0.94025777  0.76980722  0.42618478     0.14200
C2940       C  0.95447925  0.76811552  0.44247766    -0.20200
C2941       C  0.95758837  0.74934456  0.45313884    -0.06700
C2942       C  0.94584956  0.73174731  0.44704014     0.14200
C2943       C  0.94812181  0.71093690  0.45737355    -0.23500
H2944       H  0.92209269  0.72042445  0.42642212     0.15500
H2945       H  0.96352268  0.78163860  0.44655889     0.15500
C2946       C  0.93895544  0.79015912  0.41489269    -0.23500
H2947       H  0.93720317  0.69934297  0.45091175     0.05700
H2948       H  0.94485757  0.71234018  0.47420624     0.08900
H2949       H  0.96398986  0.70487625  0.45489885     0.08900
H2950       H  0.93355811  0.80239062  0.42569487     0.08900
H2951       H  0.92840463  0.78962555  0.40140049     0.08900
H2952       H  0.95450930  0.79445506  0.40899826     0.05700
C2953       C  0.73112517  0.05530781  0.61419638    -0.20100
C2954       C  0.72177653  0.07457662  0.61074423    -0.06700
C2955       C  0.70093285  0.07771880  0.61659577     0.14200
C2956       C  0.69023441  0.06169684  0.62650217    -0.20200
C2957       C  0.69990624  0.04281090  0.63088032    -0.06700
C2958       C  0.72044286  0.03934230  0.62427608     0.14200
C2959       C  0.73099643  0.01878415  0.62751448    -0.23500
H2960       H  0.74708834  0.05298650  0.60962789     0.15500
H2961       H  0.67434320  0.06414692  0.63129444     0.15500
C2962       C  0.68938944  0.09758702  0.61252644    -0.23500
H2963       H  0.74670851  0.01854686  0.62055611     0.05700
H2964       H  0.72176469  0.00629752  0.62015827     0.08900
H2965       H  0.73263495  0.01554415  0.64431364     0.08900
H2966       H  0.69860804  0.10918005  0.60391220     0.08900
H2967       H  0.68452634  0.10455432  0.62747837     0.08900
H2968       H  0.67540428  0.09421635  0.60313893     0.05700
C2969       C  0.79153460  0.11094830  0.56834809    -0.20100
C2970       C  0.77031375  0.11513439  0.56715701    -0.06700
C2971       C  0.76257152  0.12768144  0.55112713     0.14200
C2972       C  0.77636402  0.13637745  0.53691912    -0.20200
C2973       C  0.79773808  0.13275185  0.53827732    -0.06700
C2974       C  0.80543280  0.11953560  0.55398161     0.14200
C2975       C  0.82821542  0.11531771  0.55639082    -0.23500
H2976       H  0.79728097  0.10146756  0.58095559     0.15500
H2977       H  0.77040829  0.14639228  0.52484059     0.15500
C2978       C  0.73981956  0.13230825  0.54929040    -0.23500
H2979       H  0.83145247  0.10549677  0.57014430     0.05700
H2980       H  0.83671068  0.13013068  0.55832702     0.08900
H2981       H  0.83412279  0.10702354  0.54254986     0.08900
H2982       H  0.73421536  0.14004133  0.56358583     0.08900
H2983       H  0.73120024  0.11767518  0.54697245     0.08900
H2984       H  0.73644372  0.14261890  0.53593604     0.05700
C2985       C  0.76361414  0.06289530  0.56664846    -0.20100
C2986       C  0.74563324  0.07461043  0.56946876    -0.06700
C2987       C  0.72787832  0.06993029  0.55765345     0.14200
C2988       C  0.72863887  0.05377992  0.54316222    -0.20200
C2989       C  0.74677248  0.04218837  0.53987648    -0.06700
C2990       C  0.76447371  0.04668907  0.55214132     0.14200
C2991       C  0.78418324  0.03431042  0.55061713    -0.23500
H2992       H  0.77699160  0.06638736  0.57611698     0.15500
H2993       H  0.71496289  0.05059432  0.53399607     0.15500
C2994       C  0.70803807  0.08197239  0.55951987    -0.23500
H2995       H  0.79573116  0.03923200  0.56236109     0.05700
H2996       H  0.79136637  0.03652026  0.53516092     0.08900
H2997       H  0.78085037  0.01765368  0.55327060     0.08900
H2998       H  0.70357764  0.08810760  0.54408120     0.08900
H2999       H  0.70932739  0.09534358  0.57013136     0.08900
H3000       H  0.69557127  0.07162755  0.56524263     0.05700
C3001       C  0.73491808  0.06510897  0.35998644    -0.20100
C3002       C  0.72475052  0.07425373  0.37678393    -0.06700
C3003       C  0.70481276  0.06728301  0.38227476     0.14200
C3004       C  0.69549616  0.05144577  0.37059457    -0.20200
C3005       C  0.70532759  0.04266264  0.35315871    -0.06700
C3006       C  0.72563917  0.04949600  0.34809537     0.14200
C3007       C  0.73786264  0.04082979  0.33016671    -0.23500
H3008       H  0.75018444  0.07067690  0.35582092     0.15500
H3009       H  0.68009706  0.04639954  0.37488499     0.15500
C3010       C  0.69256565  0.07675753  0.39970784    -0.23500
H3011       H  0.75347581  0.04790005  0.32898958     0.05700
H3012       H  0.72974918  0.04406881  0.31536330     0.08900
H3013       H  0.74006769  0.02390999  0.33222941     0.08900
H3014       H  0.70059757  0.08998437  0.40704647     0.08900
H3015       H  0.68952754  0.06485531  0.41174859     0.08900
H3016       H  0.67757061  0.08256033  0.39367306     0.05700
C3017       C  0.80375138  0.12898724  0.43333202    -0.20100
C3018       C  0.79535887  0.13642203  0.45191256    -0.06700
C3019       C  0.77389418  0.13407480  0.45567896     0.14200
C3020       C  0.76135588  0.12469564  0.44058649    -0.20200
C3021       C  0.76963893  0.11804343  0.42169089    -0.06700
C3022       C  0.79110253  0.12019459  0.41799346     0.14200
C3023       C  0.80074849  0.11338858  0.39785963    -0.23500
H3024       H  0.82019009  0.13071920  0.43052484     0.15500
H3025       H  0.74486868  0.12323526  0.44322333     0.15500
C3026       C  0.76416528  0.14107812  0.47570548    -0.23500
H3027       H  0.81773186  0.11593862  0.39776063     0.05700
H3028       H  0.79409946  0.12226429  0.38475022     0.08900
H3029       H  0.79794827  0.09665931  0.39543617     0.08900
H3030       H  0.76548807  0.15812238  0.47729684     0.08900
H3031       H  0.77200529  0.13339091  0.48892086     0.08900
H3032       H  0.74747407  0.13708908  0.47642468     0.05700
C3033       C  0.75913446  0.04458556  0.43378092    -0.20100
C3034       C  0.74499838  0.04511527  0.45031208    -0.06700
C3035       C  0.73111643  0.06203412  0.45187390     0.14200
C3036       C  0.73173220  0.07777629  0.43684153    -0.20200
C3037       C  0.74539753  0.07680834  0.42003060    -0.06700
C3038       C  0.75927666  0.06004450  0.41847847     0.14200
C3039       C  0.77432823  0.05801620  0.40082889    -0.23500
H3040       H  0.76985782  0.03174635  0.43250379     0.15500
H3041       H  0.72137013  0.09089151  0.43805425     0.15500
C3042       C  0.71603159  0.06395119  0.46959133    -0.23500
H3043       H  0.79036169  0.05804225  0.40696948     0.05700
H3044       H  0.77290794  0.07071967  0.38940029     0.08900
H3045       H  0.77152183  0.04321583  0.39255892     0.08900
H3046       H  0.72445571  0.06344509  0.48457603     0.08900
H3047       H  0.70458401  0.05117988  0.46897279     0.08900
H3048       H  0.70729807  0.07874294  0.46892996     0.05700
C3049       C  0.69817640  0.92177322  0.60936522    -0.20100
C3050       C  0.71981651  0.92246468  0.60879333    -0.06700
C3051       C  0.73034112  0.93913371  0.61814444     0.14200
C3052       C  0.71891309  0.95475583  0.62794437    -0.20200
C3053       C  0.69722123  0.95407194  0.62866844    -0.06700
C3054       C  0.68668052  0.93749653  0.61898266     0.14200
C3055       C  0.66346160  0.93564629  0.61969322    -0.23500
H3056       H  0.69026590  0.90855860  0.60272882     0.15500
H3057       H  0.72698504  0.96741363  0.63543479     0.15500
C3058       C  0.75361229  0.93995517  0.61873329    -0.23500
H3059       H  0.65798776  0.92115054  0.61224710     0.05700
H3060       H  0.65628954  0.94880667  0.61130430     0.08900
H3061       H  0.65811229  0.93556118  0.63604119     0.08900
H3062       H  0.75981790  0.94089078  0.60278307     0.08900
H3063       H  0.75976734  0.92588228  0.62644669     0.08900
H3064       H  0.75928718  0.95368614  0.62737982     0.05700
C3065       C  0.78713206  0.87921471  0.57028242    -0.20100
C3066       C  0.76580290  0.87673030  0.56745389    -0.06700
C3067       C  0.75834661  0.86562912  0.55026608     0.14200
C3068       C  0.77247224  0.85707894  0.53623758    -0.20200
C3069       C  0.79390552  0.85944717  0.53894397    -0.06700
C3070       C  0.80135661  0.87083849  0.55613030     0.14200
C3071       C  0.82414897  0.87351328  0.56015073    -0.23500
H3072       H  0.79264002  0.88755862  0.58376722     0.15500
H3073       H  0.76671859  0.84842182  0.52306234     0.15500
C3074       C  0.73552313  0.86247810  0.54693811    -0.23500
H3075       H  0.82707693  0.88191192  0.57487688     0.05700
H3076       H  0.83129912  0.88262454  0.54745606     0.08900
H3077       H  0.83172823  0.85812521  0.56123315     0.08900
H3078       H  0.72786250  0.87769293  0.54498126     0.08900
H3079       H  0.72871534  0.85435252  0.56048095     0.08900
H3080       H  0.73235510  0.85309374  0.53287639     0.05700
C3081       C  0.76209953  0.92767394  0.56261208    -0.20100
C3082       C  0.74301644  0.91841277  0.56698755    -0.06700
C3083       C  0.72542321  0.92447032  0.55559230     0.14200
C3084       C  0.72708547  0.94055474  0.54110338    -0.20200
C3085       C  0.74607368  0.95044815  0.53701437    -0.06700
C3086       C  0.76396989  0.94352638  0.54778997     0.14200
C3087       C  0.78507624  0.95276005  0.54421470    -0.23500
H3088       H  0.77555762  0.92271413  0.57126738     0.15500
H3089       H  0.71332539  0.94511582  0.53267595     0.15500
C3090       C  0.70484085  0.91378953  0.55772712    -0.23500
H3091       H  0.79698344  0.94560573  0.55434327     0.05700
H3092       H  0.78477554  0.96959307  0.54766255     0.08900
H3093       H  0.78994352  0.95012121  0.52793310     0.08900
H3094       H  0.69311280  0.92496269  0.56344210     0.08900
H3095       H  0.70537123  0.90036150  0.56837957     0.08900
H3096       H  0.69986392  0.90789472  0.54235642     0.05700
C3097       C  0.73514584  0.94085360  0.37179169    -0.20100
C3098       C  0.72493675  0.92246320  0.37700818    -0.06700
C3099       C  0.70353209  0.92055121  0.37305440     0.14200
C3100       C  0.69308455  0.93671365  0.36291168    -0.20200
C3101       C  0.70368567  0.95446321  0.35629665    -0.06700
C3102       C  0.72484216  0.95685923  0.36136166     0.14200
C3103       C  0.73661767  0.97628510  0.35593589    -0.23500
H3104       H  0.75150078  0.94232100  0.37502744     0.15500
H3105       H  0.67679276  0.93509308  0.35931035     0.15500
C3106       C  0.69169951  0.90154237  0.37955103    -0.23500
H3107       H  0.75257890  0.97600108  0.36227995     0.05700
H3108       H  0.72857800  0.98999691  0.36248101     0.08900
H3109       H  0.73787711  0.97795622  0.33888018     0.08900
H3110       H  0.69335453  0.89919243  0.39651018     0.08900
H3111       H  0.69764186  0.88772856  0.37128418     0.08900
H3112       H  0.67496262  0.90297431  0.37597320     0.05700
C3113       C  0.76570604  0.87803133  0.43924759    -0.20100
C3114       C  0.77363284  0.87954677  0.41906848    -0.06700
C3115       C  0.79412858  0.87287789  0.41504689     0.14200
C3116       C  0.80593205  0.86437301  0.43121125    -0.20200
C3117       C  0.79757323  0.86188548  0.45106328    -0.06700
C3118       C  0.77740722  0.86914594  0.45528534     0.14200
C3119       C  0.76829493  0.86761115  0.47672788    -0.23500
H3120       H  0.75004421  0.88314478  0.44231358     0.15500
H3121       H  0.82150009  0.85892732  0.42817874     0.15500
C3122       C  0.80375657  0.87484710  0.39383944    -0.23500
H3123       H  0.75257125  0.87449059  0.47746451     0.05700
H3124       H  0.77829895  0.87598883  0.48791357     0.08900
H3125       H  0.76711029  0.85113747  0.48145142     0.08900
H3126       H  0.80284436  0.89110963  0.38838864     0.08900
H3127       H  0.79571454  0.86465980  0.38264367     0.08900
H3128       H  0.82030347  0.87024248  0.39394782     0.05700
C3129       C  0.73051065  0.92373399  0.42910485    -0.20100
C3130       C  0.74881454  0.92084293  0.41789272    -0.06700
C3131       C  0.76577026  0.93402218  0.42150838     0.14200
C3132       C  0.76402874  0.94979937  0.43635079    -0.20200
C3133       C  0.74573884  0.95276430  0.44784029    -0.06700
C3134       C  0.72871514  0.93936080  0.44413415     0.14200
C3135       C  0.70876229  0.94091051  0.45611781    -0.23500
H3136       H  0.71758193  0.91351599  0.42605509     0.15500
H3137       H  0.77714187  0.95990386  0.43896502     0.15500
C3138       C  0.78558961  0.93172534  0.40951761    -0.23500
H3139       H  0.69766531  0.92856446  0.45166786     0.05700
H3140       H  0.70118511  0.95599376  0.45295289     0.08900
H3141       H  0.71187959  0.93927461  0.47295933     0.08900
H3142       H  0.78246416  0.93214686  0.39262748     0.08900
H3143       H  0.79308763  0.91689359  0.41358223     0.08900
H3144       H  0.79671369  0.94429558  0.41317949     0.05700
loop_ 
_geom_bond_atom_site_label_1 
_geom_bond_atom_site_label_2 
_geom_bond_distance 
_geom_bond_site_symmetry_2 
_ccdc_geom_bond_type 
N1            C5   1.354       .  A
N1            C2   1.357       .  A
N1         C3130   1.440       .  S
C2            C3   1.384       .  A
C2         C3114   1.484       .  S
C3            C4   1.377       .  A
C3            H6   1.082       .  S
C4            C5   1.381       .  A
C4            H7   1.082       .  S
C5         C3098   1.480       .  S
N8           C12   1.352       .  A
N8            C9   1.354       .  A
N8         C3082   1.442       .  S
C9           C10   1.382       .  A
C9         C3050   1.475       .  S
C10          C11   1.377       .  A
C10          H13   1.082       .  S
C11          C12   1.381       .  A
C11          H14   1.082       .  S
C12        C3066   1.472       .  S
N15          C19   1.356       .  A
N15          C16   1.356       .  A
N15        C3037   1.439       .  S
C16          C17   1.381       .  A
C16        C3021   1.480       .  S
C17          C18   1.376       .  A
C17          H20   1.082       .  S
C18          C19   1.383       .  A
C18          H21   1.082       .  S
C19        C3002   1.481       .  S
N22          C26   1.353       .  A
N22          C23   1.351       .  A
N22        C2986   1.441       .  S
C23          C24   1.381       .  A
C23        C2970   1.469       .  S
C24          C25   1.376       .  A
C24          H27   1.082       .  S
C25          C26   1.383       .  A
C25          H28   1.082       .  S
C26        C2954   1.473       .  S
O29         Cu37   2.005       .  S
O29          C39   1.278       .  A
O30         Cu37   2.008   1_545  S
O30          C40   1.277       .  A
O31         Cu37   2.017       .  S
O31          C41   1.278       .  A
O32         Cu37   2.020   1_545  S
O32          C42   1.279       .  A
O33         Cu38   2.011   1_545  S
O33          C42   1.277       .  A
O34         Cu38   2.008       .  S
O34          C41   1.279       .  A
O35         Cu38   2.015   1_545  S
O35          C40   1.280       .  A
O36         Cu38   2.017       .  S
O36          C39   1.278       .  A
Cu37        Cu38   2.364       .  S
C39        C3133   1.493       .  S
C40        C2989   1.493       .  S
C41        C3085   1.497       .  S
C42        C3034   1.486       .  S
N43          C47   1.354       .  A
N43          C44   1.352       .  A
N43        C2938   1.441       .  S
C44          C45   1.381       .  A
C44        C2906   1.471       .  S
C45          C46   1.377       .  A
C45          H48   1.082       .  S
C46          C47   1.381       .  A
C46          H49   1.082       .  S
C47        C2922   1.473       .  S
N50          C54   1.356       .  A
N50          C51   1.353       .  A
N50        C2890   1.441       .  S
C51          C52   1.380       .  A
C51        C2858   1.474       .  S
C52          C53   1.376       .  A
C52          H55   1.082       .  S
C53          C54   1.384       .  A
C53          H56   1.082       .  S
C54        C2874   1.480       .  S
N57          C61   1.351       .  A
N57          C58   1.354       .  A
N57        C2842   1.441       .  S
C58          C59   1.383       .  A
C58        C2813   1.474       .  S
C59          C60   1.376       .  A
C59          H62   1.082       .  S
C60          C61   1.381       .  A
C60          H63   1.082       .  S
C61        C2826   1.470       .  S
N64          C68   1.357       .  A
N64          C65   1.355       .  A
N64        C2797   1.442       .  S
C65          C66   1.381       .  A
C65        C2762   1.476       .  S
C66          C67   1.376       .  A
C66          H69   1.082       .  S
C67          C68   1.382       .  A
C67          H70   1.082       .  S
C68        C2778   1.480       .  S
O71         Cu79   2.019   1_655  S
O71          C81   1.279       .  A
O72         Cu79   2.014       .  S
O72          C82   1.279       .  A
O73         Cu79   2.012       .  S
O73          C83   1.278       .  A
O74         Cu79   2.011   1_655  S
O74          C84   1.277       .  A
O75         Cu80   2.012   1_655  S
O75          C84   1.279       .  A
O76         Cu80   2.016       .  S
O76          C83   1.278       .  A
O77         Cu80   2.019       .  S
O77          C82   1.279       .  A
O78         Cu80   2.016   1_655  S
O78          C81   1.279       .  A
Cu79        Cu80   2.366       .  S
C81        C2893   1.495       .  S
C82        C2845   1.492       .  S
C83        C2794   1.478       .  S
C84        C2941   1.495       .  S
N85          C89   1.353       .  A
N85          C86   1.352       .  A
N85        C2746   1.441       .  S
C86          C87   1.382       .  A
C86        C2730   1.472       .  S
C87          C88   1.377       .  A
C87          H90   1.082       .  S
C88          C89   1.382       .  A
C88          H91   1.082       .  S
C89        C2714   1.473       .  S
N92          C96   1.351       .  A
N92          C93   1.352       .  A
N92        C2698   1.438       .  S
C93          C94   1.381       .  A
C93        C2666   1.473       .  S
C94          C95   1.377       .  A
C94          H97   1.082       .  S
C95          C96   1.382       .  A
C95          H98   1.082       .  S
C96        C2682   1.473       .  S
N99         C103   1.351       .  A
N99         C100   1.350       .  A
N99        C2653   1.439       .  S
C100        C101   1.382       .  A
C100       C2634   1.467       .  S
C101        C102   1.374       .  A
C101        H104   1.082       .  S
C102        C103   1.380       .  A
C102        H105   1.082       .  S
C103       C2621   1.466       .  S
N106        C110   1.357       .  A
N106        C107   1.360       .  A
N106       C2605   1.445       .  S
C107        C108   1.381       .  A
C107       C2589   1.482       .  S
C108        C109   1.375       .  A
C108        H111   1.082       .  S
C109        C110   1.382       .  A
C109        H112   1.082       .  S
C110       C2570   1.480       .  S
O113       Cu121   2.020       .  S
O113        C123   1.280       .  A
O114       Cu121   2.019   1_545  S
O114        C124   1.278       .  A
O115       Cu121   2.006       .  S
O115        C125   1.277       .  A
O116       Cu121   2.008   1_545  S
O116        C126   1.277       .  A
O117       Cu122   2.018   1_545  S
O117        C126   1.278       .  A
O118       Cu122   2.015       .  S
O118        C125   1.278       .  A
O119       Cu122   2.018   1_545  S
O119        C124   1.280       .  A
O120       Cu122   2.014       .  S
O120        C123   1.278       .  A
Cu121      Cu122   2.368       .  S
C123       C2749   1.491       .  S
C124       C2602   1.500       .  S
C125       C2701   1.478       .  S
C126       C2650   1.481       .  S
N127        C131   1.352       .  A
N127        C128   1.350       .  A
N127       C2554   1.441       .  S
C128        C129   1.380       .  A
C128       C2538   1.466       .  S
C129        C130   1.375       .  A
C129        H132   1.082       .  S
C130        C131   1.381       .  A
C130        H133   1.082       .  S
C131       C2522   1.467       .  S
N134        C138   1.356       .  A
N134        C135   1.356       .  A
N134       C2506   1.441       .  S
C135        C136   1.382       .  A
C135       C2490   1.478       .  S
C136        C137   1.375       .  A
C136        H139   1.082       .  S
C137        C138   1.383       .  A
C137        H140   1.082       .  S
C138       C2474   1.480       .  S
N141        C145   1.355       .  A
N141        C142   1.359       .  A
N141       C2458   1.445       .  S
C142        C143   1.383       .  A
C142       C2442   1.479       .  S
C143        C144   1.373       .  A
C143        H146   1.082       .  S
C144        C145   1.381       .  A
C144        H147   1.082       .  S
C145       C2429   1.478       .  S
N148        C152   1.353       .  A
N148        C149   1.352       .  A
N148       C2410   1.439       .  S
C149        C150   1.381       .  A
C149       C2394   1.473       .  S
C150        C151   1.377       .  A
C150        H153   1.082       .  S
C151        C152   1.381       .  A
C151        H154   1.082       .  S
C152       C2381   1.473       .  S
O155       Cu163   2.001   1_545  S
O155        C165   1.277       .  A
O156       Cu163   2.007       .  S
O156        C166   1.276       .  A
O157       Cu163   2.014   1_545  S
O157        C167   1.280       .  A
O158       Cu163   2.008       .  S
O158        C168   1.278       .  A
O159       Cu164   2.027       .  S
O159        C168   1.280       .  A
O160       Cu164   2.026   1_545  S
O160        C167   1.279       .  A
O161       Cu164   2.014       .  S
O161        C166   1.280       .  A
O162       Cu164   2.017   1_545  S
O162        C165   1.278       .  A
Cu163      Cu164   2.366       .  S
C165       C2413   1.477       .  S
C166       C2557   1.495       .  S
C167       C2461   1.499       .  S
C168       C2509   1.489       .  S
N169        C173   1.352       .  A
N169        C170   1.354       .  A
N169       C2365   1.440       .  S
C170        C171   1.383       .  A
C170       C2330   1.476       .  S
C171        C172   1.377       .  A
C171        H174   1.082       .  S
C172        C173   1.382       .  A
C172        H175   1.082       .  S
C173       C2349   1.474       .  S
N176        C180   1.356       .  A
N176        C177   1.353       .  A
N176       C2314   1.442       .  S
C177        C178   1.381       .  A
C177       C2282   1.476       .  S
C178        C179   1.376       .  A
C178        H181   1.082       .  S
C179        C180   1.384       .  A
C179        H182   1.082       .  S
C180       C2298   1.479       .  S
N183        C187   1.360       .  A
N183        C184   1.356       .  A
N183       C2269   1.444       .  S
C184        C185   1.379       .  A
C184       C2237   1.476       .  S
C185        C186   1.372       .  A
C185        H188   1.082       .  S
C186        C187   1.384       .  A
C186        H189   1.082       .  S
C187       C2253   1.483       .  S
N190        C194   1.353       .  A
N190        C191   1.350       .  A
N190       C2218   1.439       .  S
C191        C192   1.380       .  A
C191       C2202   1.469       .  S
C192        C193   1.375       .  A
C192        H195   1.082       .  S
C193        C194   1.382       .  A
C193        H196   1.082       .  S
C194       C2186   1.471       .  S
O197       Cu205   2.012       .  S
O197        C207   1.279       .  A
O198       Cu205   2.016   1_554  S
O198        C208   1.278       .  A
O199       Cu205   2.024   1_554  S
O199        C209   1.280       .  A
O200       Cu205   2.020       .  S
O200        C210   1.279       .  A
O201       Cu206   2.005       .  S
O201        C210   1.278       .  A
O202       Cu206   1.999   1_554  S
O202        C209   1.276       .  A
O203       Cu206   2.017   1_554  S
O203        C208   1.279       .  A
O204       Cu206   2.020       .  S
O204        C207   1.279       .  A
Cu205      Cu206   2.367       .  S
C207       C2317   1.497       .  S
C208       C2266   1.481       .  S
C209       C2221   1.479       .  S
C210       C2362   1.495       .  S
N211        C215   1.354       .  A
N211        C212   1.355       .  A
N211       C2170   1.440       .  S
C212        C213   1.381       .  A
C212       C2157   1.476       .  S
C213        C214   1.377       .  A
C213        H216   1.082       .  S
C214        C215   1.382       .  A
C214        H217   1.082       .  S
C215       C2138   1.477       .  S
N218        C222   1.356       .  A
N218        C219   1.354       .  A
N218       C2125   1.441       .  S
C219        C220   1.381       .  A
C219       C2106   1.474       .  S
C220        C221   1.375       .  A
C220        H223   1.082       .  S
C221        C222   1.383       .  A
C221        H224   1.082       .  S
C222       C2090   1.477       .  S
N225        C229   1.353       .  A
N225        C226   1.354       .  A
N225       C2074   1.436       .  S
C226        C227   1.382       .  A
C226       C2058   1.479       .  S
C227        C228   1.378       .  A
C227        H230   1.082       .  S
C228        C229   1.382       .  A
C228        H231   1.082       .  S
C229       C2045   1.479       .  S
N232        C236   1.355       .  A
N232        C233   1.355       .  A
N232       C2026   1.441       .  S
C233        C234   1.381       .  A
C233       C2010   1.474       .  S
C234        C235   1.374       .  A
C234        H237   1.082       .  S
C235        C236   1.381       .  A
C235        H238   1.082       .  S
C236       C1994   1.474       .  S
O239       Cu247   2.002       .  S
O239        C249   1.277       .  A
O240       Cu247   2.002   1_545  S
O240        C250   1.276       .  A
O241       Cu247   2.018       .  S
O241        C251   1.280       .  A
O242       Cu247   2.012   1_545  S
O242        C252   1.278       .  A
O243       Cu248   2.017   1_545  S
O243        C252   1.279       .  A
O244       Cu248   2.014       .  S
O244        C251   1.278       .  A
O245       Cu248   2.024   1_545  S
O245        C250   1.279       .  A
O246       Cu248   2.025       .  S
O246        C249   1.279       .  A
Cu247      Cu248   2.370       .  S
C249       C2173   1.478       .  S
C250       C2029   1.476       .  S
C251       C2122   1.494       .  S
C252       C2077   1.489       .  S
N253        C257   1.356       .  A
N253        C254   1.354       .  A
N253       C1978   1.444       .  S
C254        C255   1.381       .  A
C254       C1946   1.472       .  S
C255        C256   1.375       .  A
C255        H258   1.082       .  S
C256        C257   1.381       .  A
C256        H259   1.082       .  S
C257       C1962   1.474       .  S
N260        C264   1.360       .  A
N260        C261   1.355       .  A
N260       C1930   1.441       .  S
C261        C262   1.380       .  A
C261       C1898   1.482       .  S
C262        C263   1.377       .  A
C262        H265   1.082       .  S
C263        C264   1.385       .  A
C263        H266   1.081       .  S
C264       C1914   1.488       .  S
N267        C271   1.352       .  A
N267        C268   1.354       .  A
N267       C1882   1.438       .  S
C268        C269   1.383       .  A
C268       C1850   1.478       .  S
C269        C270   1.376       .  A
C269        H272   1.082       .  S
C270        C271   1.381       .  A
C270        H273   1.082       .  S
C271       C1866   1.475       .  S
N274        C278   1.352       .  A
N274        C275   1.354       .  A
N274       C1834   1.442       .  S
C275        C276   1.381       .  A
C275       C1818   1.471       .  S
C276        C277   1.376       .  A
C276        H279   1.082       .  S
C277        C278   1.381       .  A
C277        H280   1.082       .  S
C278       C1802   1.470       .  S
O281       Cu289   2.013       .  S
O281        C291   1.279       .  A
O282       Cu289   2.011   1_554  S
O282        C292   1.277       .  A
O283       Cu289   2.012       .  S
O283        C293   1.279       .  A
O284       Cu289   2.018   1_554  S
O284        C294   1.280       .  A
O285       Cu290   2.020   1_554  S
O285        C294   1.278       .  A
O286       Cu290   2.017       .  S
O286        C293   1.278       .  A
O287       Cu290   2.006   1_554  S
O287        C292   1.278       .  A
O288       Cu290   2.009       .  S
O288        C291   1.277       .  A
Cu289      Cu290   2.362       .  S
C291       C1933   1.496       .  S
C292       C1885   1.485       .  S
C293       C1981   1.499       .  S
C294       C1837   1.499       .  S
N295        C299   1.351       .  A
N295        C296   1.354       .  A
N295       C1786   1.441       .  S
C296        C297   1.381       .  A
C296       C1770   1.472       .  S
C297        C298   1.376       .  A
C297        H300   1.082       .  S
C298        C299   1.381       .  A
C298        H301   1.082       .  S
C299       C1754   1.469       .  S
N302        C306   1.352       .  A
N302        C303   1.351       .  A
N302       C1738   1.437       .  S
C303        C304   1.384       .  A
C303       C1722   1.479       .  S
C304        C305   1.379       .  A
C304        H307   1.082       .  S
C305        C306   1.381       .  A
C305        H308   1.082       .  S
C306       C1706   1.474       .  S
N309        C313   1.353       .  A
N309        C310   1.356       .  A
N309       C1693   1.441       .  S
C310        C311   1.384       .  A
C310       C1658   1.478       .  S
C311        C312   1.376       .  A
C311        H314   1.082       .  S
C312        C313   1.380       .  A
C312        H315   1.082       .  S
C313       C1677   1.475       .  S
N316        C320   1.353       .  A
N316        C317   1.353       .  A
N316       C1642   1.440       .  S
C317        C318   1.381       .  A
C317       C1610   1.472       .  S
C318        C319   1.376       .  A
C318        H321   1.082       .  S
C319        C320   1.381       .  A
C319        H322   1.082       .  S
C320       C1626   1.473       .  S
O323       Cu331   2.003   1_554  S
O323        C333   1.278       .  A
O324       Cu331   2.008       .  S
O324        C334   1.278       .  A
O325       Cu331   2.022   1_554  S
O325        C335   1.279       .  A
O326       Cu331   2.022       .  S
O326        C336   1.279       .  A
O327       Cu332   2.002       .  S
O327        C336   1.278       .  A
O328       Cu332   2.005   1_554  S
O328        C335   1.277       .  A
O329       Cu332   2.007       .  S
O329        C334   1.277       .  A
O330       Cu332   2.012   1_554  S
O330        C333   1.278       .  A
Cu331      Cu332   2.365       .  S
C333       C1690   1.490       .  S
C334       C1741   1.488       .  S
C335       C1645   1.481       .  S
C336       C1789   1.496       .  S
N337        C341   1.353       .  A
N337        C338   1.355       .  A
N337       C1594   1.439       .  S
C338        C339   1.382       .  A
C338       C1578   1.478       .  S
C339        C340   1.376       .  A
C339        H342   1.082       .  S
C340        C341   1.381       .  A
C340        H343   1.082       .  S
C341       C1562   1.474       .  S
N344        C348   1.353       .  A
N344        C345   1.357       .  A
N344       C1546   1.441       .  S
C345        C346   1.383       .  A
C345       C1514   1.480       .  S
C346        C347   1.377       .  A
C346        H349   1.082       .  S
C347        C348   1.380       .  A
C347        H350   1.082       .  S
C348       C1530   1.475       .  S
N351        C355   1.351       .  A
N351        C352   1.355       .  A
N351       C1501   1.437       .  S
C352        C353   1.384       .  A
C352       C1485   1.480       .  S
C353        C354   1.378       .  A
C353        H356   1.082       .  S
C354        C355   1.381       .  A
C354        H357   1.082       .  S
C355       C1466   1.476       .  S
N358        C362   1.352       .  A
N358        C359   1.356       .  A
N358       C1453   1.442       .  S
C359        C360   1.382       .  A
C359       C1434   1.473       .  S
C360        C361   1.375       .  A
C360        H363   1.082       .  S
C361        C362   1.380       .  A
C361        H364   1.082       .  S
C362       C1421   1.470       .  S
O365       Cu373   2.010   1_455  S
O365        C375   1.277       .  A
O366       Cu373   2.014       .  S
O366        C376   1.278       .  A
O367       Cu373   2.014   1_455  S
O367        C377   1.279       .  A
O368       Cu373   2.016       .  S
O368        C378   1.278       .  A
O369       Cu374   2.012       .  S
O369        C378   1.279       .  A
O370       Cu374   2.004   1_455  S
O370        C377   1.277       .  A
O371       Cu374   2.016       .  S
O371        C376   1.279       .  A
O372       Cu374   2.012   1_455  S
O372        C375   1.277       .  A
Cu373      Cu374   2.368       .  S
C375       C1450   1.475       .  S
C376       C1597   1.490       .  S
C377       C1498   1.487       .  S
C378       C1549   1.494       .  S
N379        C383   1.353       .  A
N379        C380   1.357       .  A
N379       C1402   1.441       .  S
C380        C381   1.384       .  A
C380       C1386   1.482       .  S
C381        C382   1.376       .  A
C381        H384   1.082       .  S
C382        C383   1.380       .  A
C382        H385   1.082       .  S
C383       C1370   1.474       .  S
N386        C390   1.350       .  A
N386        C387   1.353       .  A
N386       C1354   1.441       .  S
C387        C388   1.382       .  A
C387       C1338   1.470       .  S
C388        C389   1.376       .  A
C388        H391   1.082       .  S
C389        C390   1.381       .  A
C389        H392   1.082       .  S
C390       C1322   1.468       .  S
N393        C397   1.353       .  A
N393        C394   1.356       .  A
N393       C1306   1.441       .  S
C394        C395   1.382       .  A
C394       C1290   1.479       .  S
C395        C396   1.378       .  A
C395        H398   1.082       .  S
C396        C397   1.381       .  A
C396        H399   1.082       .  S
C397       C1274   1.475       .  S
N400        C404   1.358       .  A
N400        C401   1.355       .  A
N400       C1258   1.445       .  S
C401        C402   1.379       .  A
C401       C1226   1.471       .  S
C402        C403   1.371       .  A
C402        H405   1.082       .  S
C403        C404   1.383       .  A
C403        H406   1.082       .  S
C404       C1242   1.475       .  S
O407       Cu415   2.014   1_554  S
O407        C417   1.277       .  A
O408       Cu415   2.008       .  S
O408        C418   1.279       .  A
O409       Cu415   2.010       .  S
O409        C419   1.279       .  A
O410       Cu415   2.012   1_554  S
O410        C420   1.279       .  A
O411       Cu416   2.010   1_554  S
O411        C420   1.277       .  A
O412       Cu416   2.016       .  S
O412        C419   1.278       .  A
O413       Cu416   2.021       .  S
O413        C418   1.278       .  A
O414       Cu416   2.024   1_554  S
O414        C417   1.279       .  A
Cu415      Cu416   2.363       .  S
C417       C1261   1.483       .  S
C418       C1405   1.496       .  S
C419       C1357   1.495       .  S
C420       C1309   1.496       .  S
N421        C425   1.350       .  A
N421        C422   1.352       .  A
N421       C1210   1.437       .  S
C422        C423   1.382       .  A
C422       C1178   1.475       .  S
C423        C424   1.378       .  A
C423        H426   1.082       .  S
C424        C425   1.382       .  A
C424        H427   1.082       .  S
C425       C1194   1.473       .  S
N428        C432   1.356       .  A
N428        C429   1.353       .  A
N428       C1162   1.442       .  S
C429        C430   1.380       .  A
C429       C1130   1.473       .  S
C430        C431   1.375       .  A
C430        H433   1.082       .  S
C431        C432   1.384       .  A
C431        H434   1.082       .  S
C432       C1146   1.479       .  S
N435        C439   1.357       .  A
N435        C436   1.354       .  A
N435       C1114   1.442       .  S
C436        C437   1.380       .  A
C436       C1082   1.474       .  S
C437        C438   1.376       .  A
C437        H440   1.082       .  S
C438        C439   1.381       .  A
C438        H441   1.082       .  S
C439       C1101   1.476       .  S
N442        C446   1.356       .  A
N442        C443   1.352       .  A
N442       C1066   1.443       .  S
C443        C444   1.380       .  A
C443       C1037   1.471       .  S
C444        C445   1.375       .  A
C444        H447   1.082       .  S
C445        C446   1.384       .  A
C445        H448   1.082       .  S
C446       C1050   1.477       .  S
O449       Cu457   2.008   1_455  S
O449        C459   1.279       .  A
O450       Cu457   2.015       .  S
O450        C460   1.278       .  A
O451       Cu457   2.014   1_455  S
O451        C461   1.279       .  A
O452       Cu457   2.018       .  S
O452        C462   1.279       .  A
O453       Cu458   2.010       .  S
O453        C462   1.277       .  A
O454       Cu458   2.017   1_455  S
O454        C461   1.278       .  A
O455       Cu458   2.021       .  S
O455        C460   1.279       .  A
O456       Cu458   2.023   1_455  S
O456        C459   1.279       .  A
Cu457      Cu458   2.367       .  S
C459       C1117   1.496       .  S
C460       C1165   1.484       .  S
C461       C1069   1.495       .  S
C462       C1213   1.483       .  S
N463        C467   1.351       .  A
N463        C464   1.349       .  A
N463       C1018   1.437       .  S
C464        C465   1.381       .  A
C464        C986   1.469       .  S
C465        C466   1.377       .  A
C465        H468   1.082       .  S
C466        C467   1.382       .  A
C466        H469   1.082       .  S
C467       C1002   1.471       .  S
N470        C474   1.357       .  A
N470        C471   1.355       .  A
N470        C970   1.441       .  S
C471        C472   1.382       .  A
C471        C938   1.480       .  S
C472        C473   1.377       .  A
C472        H475   1.082       .  S
C473        C474   1.383       .  A
C473        H476   1.082       .  S
C474        C957   1.481       .  S
N477        C481   1.355       .  A
N477        C478   1.358       .  A
N477        C922   1.441       .  S
C478        C479   1.384       .  A
C478        C893   1.484       .  S
C479        C480   1.377       .  A
C479        H482   1.082       .  S
C480        C481   1.380       .  A
C480        H483   1.082       .  S
C481        C906   1.479       .  S
N484        C488   1.352       .  A
N484        C485   1.351       .  A
N484        C874   1.440       .  S
C485        C486   1.381       .  A
C485        C842   1.467       .  S
C486        C487   1.374       .  A
C486        H489   1.082       .  S
C487        C488   1.381       .  A
C487        H490   1.082       .  S
C488        C861   1.469       .  S
O491       Cu499   2.019   1_655  S
O491        C501   1.279       .  A
O492       Cu499   2.019       .  S
O492        C502   1.279       .  A
O493       Cu499   2.019       .  S
O493        C503   1.280       .  A
O494       Cu499   2.016   1_655  S
O494        C504   1.278       .  A
O495       Cu500   2.005   1_655  S
O495        C504   1.279       .  A
O496       Cu500   2.008       .  S
O496        C503   1.277       .  A
O497       Cu500   2.006       .  S
O497        C502   1.277       .  A
O498       Cu500   2.005   1_655  S
O498        C501   1.276       .  A
Cu499      Cu500   2.367       .  S
C501       C1021   1.481       .  S
C502        C877   1.479       .  S
C503        C925   1.495       .  S
C504        C973   1.493       .  S
O505       Cu513   2.019       .  S
O505        C515   1.278       .  A
O506       Cu513   2.022   1_655  S
O506        C516   1.280       .  A
O507       Cu513   2.020   1_655  S
O507        C517   1.278       .  A
O508       Cu513   2.017       .  S
O508        C518   1.278       .  A
O509       Cu514   1.994       .  S
O509        C518   1.277       .  A
O510       Cu514   1.986   1_655  S
O510        C517   1.276       .  A
O511       Cu514   2.001   1_655  S
O511        C516   1.276       .  A
O512       Cu514   2.006       .  S
O512        C515   1.277       .  A
Cu513      Cu514   2.370       .  S
C515        C890   1.475       .  S
C516       C1181   1.487       .  S
C517        C989   1.487       .  S
C518       C1085   1.479       .  S
O519       Cu527   2.021       .  S
O519        C529   1.278       .  A
O520       Cu527   2.024       .  S
O520        C530   1.280       .  A
O521       Cu527   2.019       .  S
O521        C531   1.280       .  A
O522       Cu527   2.014       .  S
O522        C532   1.278       .  A
O523       Cu528   1.985       .  S
O523        C532   1.276       .  A
O524       Cu528   1.988       .  S
O524        C531   1.274       .  A
O525       Cu528   2.001       .  S
O525        C530   1.276       .  A
O526       Cu528   1.999       .  S
O526        C529   1.276       .  A
Cu527      Cu528   2.370       .  S
C529        C954   1.476       .  S
C530       C3018   1.481       .  S
C531       C1005   1.490       .  S
C532       C2973   1.477       .  S
O533       Cu541   2.016       .  S
O533        C543   1.278       .  A
O534       Cu541   2.018       .  S
O534        C544   1.278       .  A
O535       Cu541   2.020       .  S
O535        C545   1.280       .  A
O536       Cu541   2.019       .  S
O536        C546   1.279       .  A
O537       Cu542   1.976       .  S
O537        C546   1.275       .  A
O538       Cu542   1.978       .  S
O538        C545   1.273       .  A
O539       Cu542   2.005       .  S
O539        C544   1.277       .  A
O540       Cu542   2.004       .  S
O540        C543   1.277       .  A
Cu541      Cu542   2.367       .  S
C543        C909   1.479       .  S
C544       C2586   1.480       .  S
C545        C858   1.488       .  S
C546       C2637   1.485       .  S
O547       Cu555   1.997       .  S
O547        C557   1.278       .  A
O548       Cu555   1.995       .  S
O548        C558   1.276       .  A
O549       Cu555   1.998       .  S
O549        C559   1.278       .  A
O550       Cu555   1.990       .  S
O550        C560   1.277       .  A
O551       Cu556   2.015       .  S
O551        C560   1.277       .  A
O552       Cu556   2.009       .  S
O552        C559   1.277       .  A
O553       Cu556   2.017       .  S
O553        C558   1.278       .  A
O554       Cu556   2.015       .  S
O554        C557   1.278       .  A
Cu555      Cu556   2.365       .  S
C557       C1149   1.494       .  S
C558       C1293   1.474       .  S
C559       C1197   1.490       .  S
C560       C1245   1.490       .  S
O561       Cu569   2.010       .  S
O561        C571   1.277       .  A
O562       Cu569   2.010       .  S
O562        C572   1.277       .  A
O563       Cu569   2.011       .  S
O563        C573   1.279       .  A
O564       Cu569   2.012       .  S
O564        C574   1.278       .  A
O565       Cu570   2.008       .  S
O565        C574   1.278       .  A
O566       Cu570   2.009       .  S
O566        C573   1.277       .  A
O567       Cu570   1.998       .  S
O567        C572   1.276       .  A
O568       Cu570   2.001       .  S
O568        C571   1.277       .  A
Cu569      Cu570   2.372       .  S
C571       C1674   1.473       .  S
C572       C1053   1.469       .  S
C573       C1629   1.490       .  S
C574       C1098   1.483       .  S
O575       Cu583   2.005   1_554  S
O575        C585   1.276       .  A
O576       Cu583   2.008       .  S
O576        C586   1.277       .  A
O577       Cu583   2.027       .  S
O577        C587   1.280       .  A
O578       Cu583   2.025   1_554  S
O578        C588   1.279       .  A
O579       Cu584   1.995   1_554  S
O579        C588   1.276       .  A
O580       Cu584   2.000       .  S
O580        C587   1.276       .  A
O581       Cu584   2.001       .  S
O581        C586   1.278       .  A
O582       Cu584   1.997   1_554  S
O582        C585   1.278       .  A
Cu583      Cu584   2.369       .  S
C585       C1805   1.486       .  S
C586       C1373   1.482       .  S
C587       C1901   1.482       .  S
C588       C1277   1.485       .  S
O589       Cu597   1.995       .  S
O589        C599   1.277       .  A
O590       Cu597   2.005       .  S
O590        C600   1.279       .  A
O591       Cu597   2.008       .  S
O591        C601   1.277       .  A
O592       Cu597   2.007       .  S
O592        C602   1.279       .  A
O593       Cu598   2.011       .  S
O593        C602   1.277       .  A
O594       Cu598   2.013       .  S
O594        C601   1.278       .  A
O595       Cu598   2.016       .  S
O595        C600   1.278       .  A
O596       Cu598   2.015       .  S
O596        C599   1.278       .  A
Cu597      Cu598   2.369       .  S
C599       C1341   1.480       .  S
C600       C1581   1.495       .  S
C601       C1389   1.475       .  S
C602       C1533   1.486       .  S
O603       Cu611   1.989       .  S
O603        C613   1.277       .  A
O604       Cu611   1.995   1_655  S
O604        C614   1.278       .  A
O605       Cu611   2.004   1_655  S
O605        C615   1.277       .  A
O606       Cu611   2.000       .  S
O606        C616   1.276       .  A
O607       Cu612   2.019       .  S
O607        C616   1.279       .  A
O608       Cu612   2.020   1_655  S
O608        C615   1.278       .  A
O609       Cu612   2.012   1_655  S
O609        C614   1.278       .  A
O610       Cu612   2.009       .  S
O610        C613   1.277       .  A
Cu611      Cu612   2.368       .  S
C613        C845   1.484       .  S
C614       C1565   1.489       .  S
C615        C941   1.477       .  S
C616       C1469   1.480       .  S
O617       Cu625   2.014       .  S
O617        C627   1.277       .  A
O618       Cu625   2.016       .  S
O618        C628   1.278       .  A
O619       Cu625   2.020       .  S
O619        C629   1.280       .  A
O620       Cu625   2.018       .  S
O620        C630   1.279       .  A
O621       Cu626   1.986       .  S
O621        C630   1.275       .  A
O622       Cu626   1.987       .  S
O622        C629   1.274       .  A
O623       Cu626   1.997       .  S
O623        C628   1.276       .  A
O624       Cu626   2.000       .  S
O624        C627   1.277       .  A
Cu625      Cu626   2.372       .  S
C627       C1482   1.471       .  S
C628       C1725   1.472       .  S
C629       C1437   1.492       .  S
C630       C1773   1.475       .  S
O631       Cu639   1.999   1_554  S
O631        C641   1.276       .  A
O632       Cu639   1.996       .  S
O632        C642   1.277       .  A
O633       Cu639   1.997       .  S
O633        C643   1.276       .  A
O634       Cu639   1.998   1_554  S
O634        C644   1.276       .  A
O635       Cu640   2.016   1_554  S
O635        C644   1.278       .  A
O636       Cu640   2.016       .  S
O636        C643   1.279       .  A
O637       Cu640   2.006       .  S
O637        C642   1.277       .  A
O638       Cu640   2.007   1_554  S
O638        C641   1.277       .  A
Cu639      Cu640   2.375       .  S
C641       C1853   1.469       .  S
C642       C1757   1.480       .  S
C643       C1949   1.480       .  S
C644       C1661   1.470       .  S
O645       Cu653   2.008       .  S
O645        C655   1.277       .  A
O646       Cu653   2.013       .  S
O646        C656   1.280       .  A
O647       Cu653   1.988       .  S
O647        C657   1.275       .  A
O648       Cu653   1.990       .  S
O648        C658   1.274       .  A
O649       Cu654   2.020       .  S
O649        C658   1.280       .  A
O650       Cu654   2.019       .  S
O650        C657   1.279       .  A
O651       Cu654   2.019       .  S
O651        C656   1.278       .  A
O652       Cu654   2.024       .  S
O652        C655   1.279       .  A
Cu653      Cu654   2.368       .  S
C655       C1917   1.478       .  S
C656       C2061   1.495       .  S
C657       C1965   1.476       .  S
C658       C2013   1.492       .  S
O659       Cu667   2.006       .  S
O659        C669   1.277       .  A
O660       Cu667   2.005       .  S
O660        C670   1.279       .  A
O661       Cu667   2.004       .  S
O661        C671   1.277       .  A
O662       Cu667   2.003       .  S
O662        C672   1.277       .  A
O663       Cu668   2.006       .  S
O663        C672   1.277       .  A
O664       Cu668   2.009       .  S
O664        C671   1.277       .  A
O665       Cu668   2.007       .  S
O665        C670   1.276       .  A
O666       Cu668   2.008       .  S
O666        C669   1.279       .  A
Cu667      Cu668   2.369       .  S
C669       C2397   1.490       .  S
C670       C1869   1.489       .  S
C671       C2445   1.473       .  S
C672       C1821   1.479       .  S
O673       Cu681   2.006   1_545  S
O673        C683   1.277       .  A
O674       Cu681   2.009       .  S
O674        C684   1.279       .  A
O675       Cu681   2.018       .  S
O675        C685   1.280       .  A
O676       Cu681   2.017   1_545  S
O676        C686   1.278       .  A
O677       Cu682   2.002   1_545  S
O677        C686   1.277       .  A
O678       Cu682   1.996       .  S
O678        C685   1.275       .  A
O679       Cu682   2.010       .  S
O679        C684   1.277       .  A
O680       Cu682   2.015   1_545  S
O680        C683   1.278       .  A
Cu681      Cu682   2.368       .  S
C683       C2573   1.477       .  S
C684       C2141   1.495       .  S
C685       C2669   1.490       .  S
C686       C2042   1.479       .  S
O687       Cu695   1.990       .  S
O687        C697   1.276       .  A
O688       Cu695   1.996       .  S
O688        C698   1.277       .  A
O689       Cu695   1.999       .  S
O689        C699   1.276       .  A
O690       Cu695   1.998       .  S
O690        C700   1.276       .  A
O691       Cu696   2.018       .  S
O691        C700   1.279       .  A
O692       Cu696   2.014       .  S
O692        C699   1.278       .  A
O693       Cu696   2.024       .  S
O693        C698   1.279       .  A
O694       Cu696   2.027       .  S
O694        C697   1.280       .  A
Cu695      Cu696   2.369       .  S
C697       C2346   1.490       .  S
C698       C2109   1.488       .  S
C699       C2301   1.472       .  S
C700       C2154   1.485       .  S
O701       Cu709   2.014       .  S
O701        C711   1.278       .  A
O702       Cu709   2.020   1_554  S
O702        C712   1.280       .  A
O703       Cu709   2.012   1_554  S
O703        C713   1.279       .  A
O704       Cu709   2.010       .  S
O704        C714   1.277       .  A
O705       Cu710   1.993       .  S
O705        C714   1.275       .  A
O706       Cu710   1.993   1_554  S
O706        C713   1.275       .  A
O707       Cu710   1.993   1_554  S
O707        C712   1.275       .  A
O708       Cu710   1.995       .  S
O708        C711   1.277       .  A
Cu709      Cu710   2.369       .  S
C711       C1709   1.478       .  S
C712       C2234   1.494       .  S
C713       C1613   1.483       .  S
C714       C2333   1.469       .  S
O715       Cu723   1.985       .  S
O715        C725   1.276       .  A
O716       Cu723   1.984       .  S
O716        C726   1.275       .  A
O717       Cu723   2.008       .  S
O717        C727   1.277       .  A
O718       Cu723   2.005       .  S
O718        C728   1.279       .  A
O719       Cu724   2.010       .  S
O719        C728   1.277       .  A
O720       Cu724   2.010       .  S
O720        C727   1.278       .  A
O721       Cu724   2.002       .  S
O721        C726   1.276       .  A
O722       Cu724   2.009       .  S
O722        C725   1.277       .  A
Cu723      Cu724   2.371       .  S
C725       C2541   1.476       .  S
C726       C2205   1.466       .  S
C727       C2493   1.476       .  S
C728       C2250   1.494       .  S
O729       Cu737   2.018   1_545  S
O729        C739   1.278       .  A
O730       Cu737   2.015       .  S
O730        C740   1.278       .  A
O731       Cu737   1.999       .  S
O731        C741   1.276       .  A
O732       Cu737   2.002   1_545  S
O732        C742   1.278       .  A
O733       Cu738   1.995   1_545  S
O733        C742   1.275       .  A
O734       Cu738   1.991       .  S
O734        C741   1.277       .  A
O735       Cu738   1.995       .  S
O735        C740   1.276       .  A
O736       Cu738   1.995   1_545  S
O736        C739   1.275       .  A
Cu737      Cu738   2.372       .  S
C739       C2426   1.472       .  S
C740       C2717   1.472       .  S
C741       C2525   1.473       .  S
C742       C2618   1.485       .  S
O743       Cu751   1.987       .  S
O743        C753   1.275       .  A
O744       Cu751   1.988       .  S
O744        C754   1.277       .  A
O745       Cu751   1.993       .  S
O745        C755   1.275       .  A
O746       Cu751   1.991       .  S
O746        C756   1.275       .  A
O747       Cu752   2.017       .  S
O747        C756   1.278       .  A
O748       Cu752   2.026       .  S
O748        C755   1.281       .  A
O749       Cu752   2.016       .  S
O749        C754   1.278       .  A
O750       Cu752   2.010       .  S
O750        C753   1.277       .  A
Cu751      Cu752   2.368       .  S
C753       C2829   1.468       .  S
C754       C2685   1.491       .  S
C755       C2781   1.497       .  S
C756       C2733   1.474       .  S
O757       Cu765   2.010   1_455  S
O757        C767   1.277       .  A
O758       Cu765   2.012       .  S
O758        C768   1.278       .  A
O759       Cu765   2.011       .  S
O759        C769   1.279       .  A
O760       Cu765   2.006   1_455  S
O760        C770   1.276       .  A
O761       Cu766   1.996       .  S
O761        C770   1.276       .  A
O762       Cu766   2.000   1_655  S
O762        C769   1.276       .  A
O763       Cu766   1.991   1_655  S
O763        C768   1.277       .  A
O764       Cu766   1.996       .  S
O764        C767   1.276       .  A
Cu765      Cu766   2.373   1_655  S
C767       C1034   1.472       .  S
C768       C2909   1.480       .  S
C769       C1133   1.489       .  S
C770       C2810   1.466       .  S
O771       Cu779   2.006       .  S
O771        C781   1.277       .  A
O772       Cu779   2.007       .  S
O772        C782   1.277       .  A
O773       Cu779   1.994       .  S
O773        C783   1.277       .  A
O774       Cu779   1.993       .  S
O774        C784   1.277       .  A
O775       Cu780   2.016       .  S
O775        C784   1.278       .  A
O776       Cu780   2.016       .  S
O776        C783   1.278       .  A
O777       Cu780   2.017       .  S
O777        C782   1.278       .  A
O778       Cu780   2.014       .  S
O778        C781   1.278       .  A
Cu779      Cu780   2.374       .  S
C781       C2877   1.476       .  S
C782       C3117   1.474       .  S
C783       C2925   1.480       .  S
C784       C3069   1.479       .  S
O785       Cu793   2.012       .  S
O785        C795   1.277       .  A
O786       Cu793   2.022   1_545  S
O786        C796   1.280       .  A
O787       Cu793   2.018   1_545  S
O787        C797   1.280       .  A
O788       Cu793   2.022       .  S
O788        C798   1.279       .  A
O789       Cu794   1.992       .  S
O789        C798   1.275       .  A
O790       Cu794   1.991   1_545  S
O790        C797   1.274       .  A
O791       Cu794   2.004   1_545  S
O791        C796   1.276       .  A
O792       Cu794   2.003       .  S
O792        C795   1.279       .  A
Cu793      Cu794   2.365       .  S
C795       C2477   1.493       .  S
C796       C3005   1.499       .  S
C797       C2378   1.483       .  S
C798       C3101   1.476       .  S
O799       Cu807   2.000       .  S
O799        C809   1.276       .  A
O800       Cu807   1.989   1_455  S
O800        C810   1.277       .  A
O801       Cu807   2.000   1_455  S
O801        C811   1.275       .  A
O802       Cu807   2.005       .  S
O802        C812   1.277       .  A
O803       Cu808   2.014       .  S
O803        C812   1.278       .  A
O804       Cu808   2.018   1_455  S
O804        C811   1.280       .  A
O805       Cu808   2.016   1_455  S
O805        C810   1.278       .  A
O806       Cu808   2.014       .  S
O806        C809   1.278       .  A
Cu807      Cu808   2.369       .  S
C809       C2861   1.476       .  S
C810       C1418   1.488       .  S
C811       C2765   1.492       .  S
C812       C1517   1.477       .  S
O813       Cu821   2.003       .  S
O813        C823   1.277       .  A
O814       Cu821   1.999   1_545  S
O814        C824   1.276       .  A
O815       Cu821   2.000   1_545  S
O815        C825   1.276       .  A
O816       Cu821   2.000       .  S
O816        C826   1.277       .  A
O817       Cu822   2.011       .  S
O817        C826   1.278       .  A
O818       Cu822   2.011   1_545  S
O818        C825   1.279       .  A
O819       Cu822   2.003   1_545  S
O819        C824   1.276       .  A
O820       Cu822   1.999       .  S
O820        C823   1.276       .  A
Cu821      Cu822   2.373       .  S
C823       C2093   1.468       .  S
C824       C2957   1.468       .  S
C825       C1997   1.491       .  S
C826       C3053   1.478       .  S
O827       Cu835   2.016       .  S
O827        C837   1.278       .  A
O828       Cu835   2.016   1_554  S
O828        C838   1.280       .  A
O829       Cu835   2.012   1_554  S
O829        C839   1.279       .  A
O830       Cu835   2.005       .  S
O830        C840   1.277       .  A
O831       Cu836   1.993       .  S
O831        C840   1.276       .  A
O832       Cu836   1.990   1_554  S
O832        C839   1.274       .  A
O833       Cu836   1.984   1_554  S
O833        C838   1.273       .  A
O834       Cu836   1.992       .  S
O834        C837   1.275       .  A
Cu835      Cu836   2.370       .  S
C837       C2285   1.470       .  S
C838       C1229   1.488       .  S
C839       C2189   1.489       .  S
C840       C1325   1.470       .  S
C841        C842   1.399       .  A
C841        C846   1.405       .  A
C841        H848   1.084       .  S
C842        C843   1.406       .  A
C843        C844   1.397       .  A
C843        C850   1.508       .  S
C844        C845   1.408       .  A
C844        H849   1.084       .  S
C845        C846   1.420       .  A
C846        C847   1.507       .  S
C847        H851   1.111       .  S
C847        H852   1.111       .  S
C847        H853   1.110       .  S
C850        H854   1.110       .  S
C850        H855   1.109       .  S
C850        H856   1.111       .  S
C857        C858   1.408       .  A
C857        C862   1.402       .  A
C857        H864   1.084       .  S
C858        C859   1.424       .  A
C859        C860   1.398       .  A
C859        C866   1.510       .  S
C860        C861   1.395       .  A
C860        H865   1.085       .  S
C861        C862   1.410       .  A
C862        C863   1.507       .  S
C863        H867   1.110       .  S
C863        H868   1.107       .  S
C863        H869   1.110       .  S
C866        H870   1.110       .  S
C866        H871   1.110       .  S
C866        H872   1.111       .  S
C873        C874   1.401       .  A
C873        C878   1.405       .  A
C873        H880   1.082       .  S
C874        C875   1.412       .  A
C875        C876   1.404       .  A
C875        C882   1.504       .  S
C876        C877   1.403       .  A
C876        H881   1.085       .  S
C877        C878   1.416       .  A
C878        C879   1.508       .  S
C879        H883   1.111       .  S
C879        H884   1.109       .  S
C879        H885   1.111       .  S
C882        H886   1.110       .  S
C882        H887   1.108       .  S
C882        H888   1.110       .  S
C889        C890   1.399       .  A
C889        C894   1.404       .  A
C889        H896   1.084       .  S
C890        C891   1.414       .  A
C891        C892   1.406       .  A
C891        C898   1.508       .  S
C892        C893   1.403       .  A
C892        H897   1.084       .  S
C893        C894   1.417       .  A
C894        C895   1.508       .  S
C895        H899   1.111       .  S
C895        H900   1.108       .  S
C895        H901   1.108       .  S
C898        H902   1.110       .  S
C898        H903   1.111       .  S
C898        H904   1.111       .  S
C905        C906   1.400       .  A
C905        C910   1.404       .  A
C905        H912   1.084       .  S
C906        C907   1.412       .  A
C907        C908   1.404       .  A
C907        C914   1.507       .  S
C908        C909   1.403       .  A
C908        H913   1.084       .  S
C909        C910   1.417       .  A
C910        C911   1.508       .  S
C911        H915   1.111       .  S
C911        H916   1.109       .  S
C911        H917   1.111       .  S
C914        H918   1.109       .  S
C914        H919   1.109       .  S
C914        H920   1.111       .  S
C921        C922   1.398       .  A
C921        C926   1.404       .  A
C921        H928   1.082       .  S
C922        C923   1.409       .  A
C923        C924   1.405       .  A
C923        C930   1.504       .  S
C924        C925   1.410       .  A
C924        H929   1.084       .  S
C925        C926   1.423       .  A
C926        C927   1.508       .  S
C927        H931   1.111       .  S
C927        H932   1.109       .  S
C927        H933   1.110       .  S
C930        H934   1.106       .  S
C930        H935   1.111       .  S
C930        H936   1.110       .  S
C937        C938   1.401       .  A
C937        C942   1.405       .  A
C937        H944   1.084       .  S
C938        C939   1.416       .  A
C939        C940   1.404       .  A
C939        C946   1.507       .  S
C940        C941   1.401       .  A
C940        H945   1.084       .  S
C941        C942   1.415       .  A
C942        C943   1.508       .  S
C943        H947   1.111       .  S
C943        H948   1.109       .  S
C943        H949   1.111       .  S
C946        H950   1.108       .  S
C946        H951   1.111       .  S
C946        H952   1.110       .  S
C953        C954   1.402       .  A
C953        C958   1.405       .  A
C953        H960   1.084       .  S
C954        C955   1.414       .  A
C955        C956   1.402       .  A
C955        C962   1.507       .  S
C956        C957   1.401       .  A
C956        H961   1.084       .  S
C957        C958   1.417       .  A
C958        C959   1.508       .  S
C959        H963   1.111       .  S
C959        H964   1.110       .  S
C959        H965   1.108       .  S
C962        H966   1.109       .  S
C962        H967   1.111       .  S
C962        H968   1.111       .  S
C969        C970   1.400       .  A
C969        C974   1.406       .  A
C969        H976   1.084       .  S
C970        C971   1.409       .  A
C971        C972   1.402       .  A
C971        C978   1.505       .  S
C972        C973   1.408       .  A
C972        H977   1.084       .  S
C973        C974   1.422       .  A
C974        C975   1.507       .  S
C975        H979   1.110       .  S
C975        H980   1.111       .  S
C975        H981   1.110       .  S
C978        H982   1.104       .  S
C978        H983   1.110       .  S
C978        H984   1.111       .  S
C985        C986   1.400       .  A
C985        C990   1.406       .  A
C985        H992   1.084       .  S
C986        C987   1.407       .  A
C987        C988   1.396       .  A
C987        C994   1.508       .  S
C988        C989   1.409       .  A
C988        H993   1.084       .  S
C989        C990   1.420       .  A
C990        C991   1.507       .  S
C991        H995   1.111       .  S
C991        H996   1.110       .  S
C991        H997   1.110       .  S
C994        H998   1.108       .  S
C994        H999   1.111       .  S
C994       H1000   1.110       .  S
C1001      C1002   1.395       .  A
C1001      C1006   1.400       .  A
C1001      H1008   1.084       .  S
C1002      C1003   1.407       .  A
C1003      C1004   1.404       .  A
C1003      C1010   1.506       .  S
C1004      C1005   1.409       .  A
C1004      H1009   1.083       .  S
C1005      C1006   1.424       .  A
C1006      C1007   1.509       .  S
C1007      H1011   1.111       .  S
C1007      H1012   1.109       .  S
C1007      H1013   1.110       .  S
C1010      H1014   1.108       .  S
C1010      H1015   1.110       .  S
C1010      H1016   1.111       .  S
C1017      C1018   1.400       .  A
C1017      C1022   1.404       .  A
C1017      H1024   1.082       .  S
C1018      C1019   1.410       .  A
C1019      C1020   1.404       .  A
C1019      C1026   1.504       .  S
C1020      C1021   1.405       .  A
C1020      H1025   1.084       .  S
C1021      C1022   1.417       .  A
C1022      C1023   1.507       .  S
C1023      H1027   1.111       .  S
C1023      H1028   1.109       .  S
C1023      H1029   1.110       .  S
C1026      H1030   1.108       .  S
C1026      H1031   1.110       .  S
C1026      H1032   1.110       .  S
C1033      C1034   1.403       .  A
C1033      C1038   1.404       .  A
C1033      H1040   1.084       .  S
C1034      C1035   1.414       .  A
C1035      C1036   1.398       .  A
C1035      C1042   1.506       .  S
C1036      C1037   1.398       .  A
C1036      H1041   1.084       .  S
C1037      C1038   1.411       .  A
C1038      C1039   1.506       .  S
C1039      H1043   1.111       .  S
C1039      H1044   1.109       .  S
C1039      H1045   1.110       .  S
C1042      H1046   1.109       .  S
C1042      H1047   1.110       .  S
C1042      H1048   1.111       .  S
C1049      C1050   1.400       .  A
C1049      C1054   1.401       .  A
C1049      H1056   1.084       .  S
C1050      C1051   1.417       .  A
C1051      C1052   1.403       .  A
C1051      C1058   1.509       .  S
C1052      C1053   1.399       .  A
C1052      H1057   1.084       .  S
C1053      C1054   1.412       .  A
C1054      C1055   1.507       .  S
C1055      H1059   1.111       .  S
C1055      H1060   1.109       .  S
C1055      H1061   1.110       .  S
C1058      H1062   1.107       .  S
C1058      H1063   1.108       .  S
C1058      H1064   1.111       .  S
C1065      C1066   1.401       .  A
C1065      C1070   1.407       .  A
C1065      H1072   1.084       .  S
C1066      C1067   1.410       .  A
C1067      C1068   1.404       .  A
C1067      C1074   1.503       .  S
C1068      C1069   1.408       .  A
C1068      H1073   1.084       .  S
C1069      C1070   1.422       .  A
C1070      C1071   1.508       .  S
C1071      H1075   1.111       .  S
C1071      H1076   1.110       .  S
C1071      H1077   1.110       .  S
C1074      H1078   1.106       .  S
C1074      H1079   1.111       .  S
C1074      H1080   1.110       .  S
C1081      C1082   1.402       .  A
C1081      C1086   1.406       .  A
C1081      H1088   1.084       .  S
C1082      C1083   1.408       .  A
C1083      C1084   1.400       .  A
C1083      C1090   1.506       .  S
C1084      C1085   1.405       .  A
C1084      H1089   1.083       .  S
C1085      C1086   1.415       .  A
C1086      C1087   1.506       .  S
C1087      H1091   1.111       .  S
C1087      H1092   1.111       .  S
C1087      H1093   1.109       .  S
C1090      H1094   1.110       .  S
C1090      H1095   1.107       .  S
C1090      H1096   1.111       .  S
C1097      C1098   1.405       .  A
C1097      C1102   1.403       .  A
C1097      H1104   1.084       .  S
C1098      C1099   1.416       .  A
C1099      C1100   1.405       .  A
C1099      C1106   1.508       .  S
C1100      C1101   1.402       .  A
C1100      H1105   1.084       .  S
C1101      C1102   1.412       .  A
C1102      C1103   1.508       .  S
C1103      H1107   1.110       .  S
C1103      H1108   1.110       .  S
C1103      H1109   1.107       .  S
C1106      H1110   1.111       .  S
C1106      H1111   1.109       .  S
C1106      H1112   1.111       .  S
C1113      C1114   1.401       .  A
C1113      C1118   1.408       .  A
C1113      H1120   1.083       .  S
C1114      C1115   1.411       .  A
C1115      C1116   1.402       .  A
C1115      C1122   1.506       .  S
C1116      C1117   1.409       .  A
C1116      H1121   1.084       .  S
C1117      C1118   1.422       .  A
C1118      C1119   1.507       .  S
C1119      H1123   1.111       .  S
C1119      H1124   1.110       .  S
C1119      H1125   1.110       .  S
C1122      H1126   1.107       .  S
C1122      H1127   1.110       .  S
C1122      H1128   1.111       .  S
C1129      C1130   1.397       .  A
C1129      C1134   1.403       .  A
C1129      H1136   1.085       .  S
C1130      C1131   1.407       .  A
C1131      C1132   1.402       .  A
C1131      C1138   1.505       .  S
C1132      C1133   1.408       .  A
C1132      H1137   1.084       .  S
C1133      C1134   1.423       .  A
C1134      C1135   1.508       .  S
C1135      H1139   1.111       .  S
C1135      H1140   1.107       .  S
C1135      H1141   1.110       .  S
C1138      H1142   1.106       .  S
C1138      H1143   1.110       .  S
C1138      H1144   1.111       .  S
C1145      C1146   1.400       .  A
C1145      C1150   1.406       .  A
C1145      H1152   1.084       .  S
C1146      C1147   1.411       .  A
C1147      C1148   1.400       .  A
C1147      C1154   1.510       .  S
C1148      C1149   1.409       .  A
C1148      H1153   1.083       .  S
C1149      C1150   1.422       .  A
C1150      C1151   1.508       .  S
C1151      H1155   1.111       .  S
C1151      H1156   1.110       .  S
C1151      H1157   1.110       .  S
C1154      H1158   1.107       .  S
C1154      H1159   1.108       .  S
C1154      H1160   1.111       .  S
C1161      C1162   1.402       .  A
C1161      C1166   1.407       .  A
C1161      H1168   1.083       .  S
C1162      C1163   1.413       .  A
C1163      C1164   1.404       .  A
C1163      C1170   1.504       .  S
C1164      C1165   1.404       .  A
C1164      H1169   1.085       .  S
C1165      C1166   1.416       .  A
C1166      C1167   1.507       .  S
C1167      H1171   1.111       .  S
C1167      H1172   1.110       .  S
C1167      H1173   1.111       .  S
C1170      H1174   1.110       .  S
C1170      H1175   1.106       .  S
C1170      H1176   1.110       .  S
C1177      C1178   1.397       .  A
C1177      C1182   1.404       .  A
C1177      H1184   1.084       .  S
C1178      C1179   1.410       .  A
C1179      C1180   1.405       .  A
C1179      C1186   1.506       .  S
C1180      C1181   1.406       .  A
C1180      H1185   1.084       .  S
C1181      C1182   1.421       .  A
C1182      C1183   1.508       .  S
C1183      H1187   1.111       .  S
C1183      H1188   1.109       .  S
C1183      H1189   1.109       .  S
C1186      H1190   1.110       .  S
C1186      H1191   1.108       .  S
C1186      H1192   1.111       .  S
C1193      C1194   1.398       .  A
C1193      C1198   1.404       .  A
C1193      H1200   1.084       .  S
C1194      C1195   1.407       .  A
C1195      C1196   1.401       .  A
C1195      C1202   1.508       .  S
C1196      C1197   1.409       .  A
C1196      H1201   1.084       .  S
C1197      C1198   1.422       .  A
C1198      C1199   1.508       .  S
C1199      H1203   1.111       .  S
C1199      H1204   1.110       .  S
C1199      H1205   1.110       .  S
C1202      H1206   1.110       .  S
C1202      H1207   1.109       .  S
C1202      H1208   1.111       .  S
C1209      C1210   1.399       .  A
C1209      C1214   1.404       .  A
C1209      H1216   1.082       .  S
C1210      C1211   1.410       .  A
C1211      C1212   1.404       .  A
C1211      C1218   1.505       .  S
C1212      C1213   1.406       .  A
C1212      H1217   1.084       .  S
C1213      C1214   1.416       .  A
C1214      C1215   1.507       .  S
C1215      H1219   1.111       .  S
C1215      H1220   1.111       .  S
C1215      H1221   1.109       .  S
C1218      H1222   1.111       .  S
C1218      H1223   1.108       .  S
C1218      H1224   1.110       .  S
C1225      C1226   1.397       .  A
C1225      C1230   1.400       .  A
C1225      H1232   1.085       .  S
C1226      C1227   1.410       .  A
C1227      C1228   1.401       .  A
C1227      C1234   1.506       .  S
C1228      C1229   1.408       .  A
C1228      H1233   1.084       .  S
C1229      C1230   1.424       .  A
C1230      C1231   1.510       .  S
C1231      H1235   1.111       .  S
C1231      H1236   1.110       .  S
C1231      H1237   1.107       .  S
C1234      H1238   1.105       .  S
C1234      H1239   1.110       .  S
C1234      H1240   1.110       .  S
C1241      C1242   1.401       .  A
C1241      C1246   1.406       .  A
C1241      H1248   1.084       .  S
C1242      C1243   1.412       .  A
C1243      C1244   1.397       .  A
C1243      C1250   1.511       .  S
C1244      C1245   1.407       .  A
C1244      H1249   1.083       .  S
C1245      C1246   1.421       .  A
C1246      C1247   1.507       .  S
C1247      H1251   1.111       .  S
C1247      H1252   1.110       .  S
C1247      H1253   1.110       .  S
C1250      H1254   1.108       .  S
C1250      H1255   1.107       .  S
C1250      H1256   1.111       .  S
C1257      C1258   1.403       .  A
C1257      C1262   1.406       .  A
C1257      H1264   1.083       .  S
C1258      C1259   1.415       .  A
C1259      C1260   1.406       .  A
C1259      C1266   1.503       .  S
C1260      C1261   1.403       .  A
C1260      H1265   1.085       .  S
C1261      C1262   1.414       .  A
C1262      C1263   1.507       .  S
C1263      H1267   1.111       .  S
C1263      H1268   1.111       .  S
C1263      H1269   1.110       .  S
C1266      H1270   1.110       .  S
C1266      H1271   1.104       .  S
C1266      H1272   1.110       .  S
C1273      C1274   1.401       .  A
C1273      C1278   1.407       .  A
C1273      H1280   1.084       .  S
C1274      C1275   1.407       .  A
C1275      C1276   1.401       .  A
C1275      C1282   1.506       .  S
C1276      C1277   1.407       .  A
C1276      H1281   1.084       .  S
C1277      C1278   1.417       .  A
C1278      C1279   1.507       .  S
C1279      H1283   1.111       .  S
C1279      H1284   1.110       .  S
C1279      H1285   1.110       .  S
C1282      H1286   1.110       .  S
C1282      H1287   1.109       .  S
C1282      H1288   1.111       .  S
C1289      C1290   1.405       .  A
C1289      C1294   1.405       .  A
C1289      H1296   1.084       .  S
C1290      C1291   1.414       .  A
C1291      C1292   1.401       .  A
C1291      C1298   1.507       .  S
C1292      C1293   1.402       .  A
C1292      H1297   1.085       .  S
C1293      C1294   1.412       .  A
C1294      C1295   1.507       .  S
C1295      H1299   1.111       .  S
C1295      H1300   1.111       .  S
C1295      H1301   1.110       .  S
C1298      H1302   1.106       .  S
C1298      H1303   1.110       .  S
C1298      H1304   1.111       .  S
C1305      C1306   1.400       .  A
C1305      C1310   1.405       .  A
C1305      H1312   1.083       .  S
C1306      C1307   1.410       .  A
C1307      C1308   1.402       .  A
C1307      C1314   1.506       .  S
C1308      C1309   1.409       .  A
C1308      H1313   1.084       .  S
C1309      C1310   1.423       .  A
C1310      C1311   1.508       .  S
C1311      H1315   1.111       .  S
C1311      H1316   1.110       .  S
C1311      H1317   1.110       .  S
C1314      H1318   1.107       .  S
C1314      H1319   1.110       .  S
C1314      H1320   1.110       .  S
C1321      C1322   1.398       .  A
C1321      C1326   1.400       .  A
C1321      H1328   1.085       .  S
C1322      C1323   1.412       .  A
C1323      C1324   1.400       .  A
C1323      C1330   1.507       .  S
C1324      C1325   1.401       .  A
C1324      H1329   1.085       .  S
C1325      C1326   1.415       .  A
C1326      C1327   1.507       .  S
C1327      H1331   1.111       .  S
C1327      H1332   1.111       .  S
C1327      H1333   1.109       .  S
C1330      H1334   1.108       .  S
C1330      H1335   1.110       .  S
C1330      H1336   1.110       .  S
C1337      C1338   1.399       .  A
C1337      C1342   1.403       .  A
C1337      H1344   1.083       .  S
C1338      C1339   1.408       .  A
C1339      C1340   1.400       .  A
C1339      C1346   1.507       .  S
C1340      C1341   1.406       .  A
C1340      H1345   1.084       .  S
C1341      C1342   1.416       .  A
C1342      C1343   1.505       .  S
C1343      H1347   1.111       .  S
C1343      H1348   1.108       .  S
C1343      H1349   1.109       .  S
C1346      H1350   1.110       .  S
C1346      H1351   1.108       .  S
C1346      H1352   1.111       .  S
C1353      C1354   1.400       .  A
C1353      C1358   1.405       .  A
C1353      H1360   1.084       .  S
C1354      C1355   1.410       .  A
C1355      C1356   1.403       .  A
C1355      C1362   1.505       .  S
C1356      C1357   1.409       .  A
C1356      H1361   1.084       .  S
C1357      C1358   1.422       .  A
C1358      C1359   1.508       .  S
C1359      H1363   1.111       .  S
C1359      H1364   1.110       .  S
C1359      H1365   1.110       .  S
C1362      H1366   1.107       .  S
C1362      H1367   1.110       .  S
C1362      H1368   1.110       .  S
C1369      C1370   1.400       .  A
C1369      C1374   1.405       .  A
C1369      H1376   1.084       .  S
C1370      C1371   1.408       .  A
C1371      C1372   1.400       .  A
C1371      C1378   1.506       .  S
C1372      C1373   1.406       .  A
C1372      H1377   1.084       .  S
C1373      C1374   1.418       .  A
C1374      C1375   1.507       .  S
C1375      H1379   1.111       .  S
C1375      H1380   1.110       .  S
C1375      H1381   1.111       .  S
C1378      H1382   1.108       .  S
C1378      H1383   1.110       .  S
C1378      H1384   1.111       .  S
C1385      C1386   1.403       .  A
C1385      C1390   1.406       .  A
C1385      H1392   1.084       .  S
C1386      C1387   1.417       .  A
C1387      C1388   1.401       .  A
C1387      C1394   1.508       .  S
C1388      C1389   1.399       .  A
C1388      H1393   1.085       .  S
C1389      C1390   1.414       .  A
C1390      C1391   1.507       .  S
C1391      H1395   1.111       .  S
C1391      H1396   1.109       .  S
C1391      H1397   1.111       .  S
C1394      H1398   1.110       .  S
C1394      H1399   1.107       .  S
C1394      H1400   1.110       .  S
C1401      C1402   1.401       .  A
C1401      C1406   1.408       .  A
C1401      H1408   1.083       .  S
C1402      C1403   1.410       .  A
C1403      C1404   1.401       .  A
C1403      C1410   1.506       .  S
C1404      C1405   1.409       .  A
C1404      H1409   1.084       .  S
C1405      C1406   1.422       .  A
C1406      C1407   1.507       .  S
C1407      H1411   1.111       .  S
C1407      H1412   1.110       .  S
C1407      H1413   1.110       .  S
C1410      H1414   1.110       .  S
C1410      H1415   1.106       .  S
C1410      H1416   1.111       .  S
C1417      C1418   1.408       .  A
C1417      C1422   1.396       .  A
C1417      H1424   1.084       .  S
C1418      C1419   1.421       .  A
C1419      C1420   1.407       .  A
C1419      C1426   1.507       .  S
C1420      C1421   1.400       .  A
C1420      H1425   1.084       .  S
C1421      C1422   1.408       .  A
C1422      C1423   1.509       .  S
C1423      H1427   1.110       .  S
C1423      H1428   1.110       .  S
C1423      H1429   1.108       .  S
C1426      H1430   1.110       .  S
C1426      H1431   1.110       .  S
C1426      H1432   1.111       .  S
C1433      C1434   1.396       .  A
C1433      C1438   1.400       .  A
C1433      H1440   1.084       .  S
C1434      C1435   1.408       .  A
C1435      C1436   1.405       .  A
C1435      C1442   1.506       .  S
C1436      C1437   1.410       .  A
C1436      H1441   1.083       .  S
C1437      C1438   1.425       .  A
C1438      C1439   1.510       .  S
C1439      H1443   1.111       .  S
C1439      H1444   1.110       .  S
C1439      H1445   1.110       .  S
C1442      H1446   1.106       .  S
C1442      H1447   1.110       .  S
C1442      H1448   1.111       .  S
C1449      C1450   1.403       .  A
C1449      C1454   1.405       .  A
C1449      H1456   1.085       .  S
C1450      C1451   1.411       .  A
C1451      C1452   1.403       .  A
C1451      C1458   1.506       .  S
C1452      C1453   1.403       .  A
C1452      H1457   1.083       .  S
C1453      C1454   1.414       .  A
C1454      C1455   1.504       .  S
C1455      H1459   1.110       .  S
C1455      H1460   1.111       .  S
C1455      H1461   1.107       .  S
C1458      H1462   1.109       .  S
C1458      H1463   1.111       .  S
C1458      H1464   1.111       .  S
C1465      C1466   1.399       .  A
C1465      C1470   1.402       .  A
C1465      H1472   1.084       .  S
C1466      C1467   1.411       .  A
C1467      C1468   1.405       .  A
C1467      C1474   1.506       .  S
C1468      C1469   1.405       .  A
C1468      H1473   1.084       .  S
C1469      C1470   1.417       .  A
C1470      C1471   1.508       .  S
C1471      H1475   1.111       .  S
C1471      H1476   1.109       .  S
C1471      H1477   1.111       .  S
C1474      H1478   1.109       .  S
C1474      H1479   1.110       .  S
C1474      H1480   1.111       .  S
C1481      C1482   1.400       .  A
C1481      C1486   1.405       .  A
C1481      H1488   1.084       .  S
C1482      C1483   1.412       .  A
C1483      C1484   1.402       .  A
C1483      C1490   1.508       .  S
C1484      C1485   1.401       .  A
C1484      H1489   1.083       .  S
C1485      C1486   1.417       .  A
C1486      C1487   1.508       .  S
C1487      H1491   1.111       .  S
C1487      H1492   1.108       .  S
C1487      H1493   1.108       .  S
C1490      H1494   1.109       .  S
C1490      H1495   1.111       .  S
C1490      H1496   1.111       .  S
C1497      C1498   1.407       .  A
C1497      C1502   1.402       .  A
C1497      H1504   1.084       .  S
C1498      C1499   1.420       .  A
C1499      C1500   1.404       .  A
C1499      C1506   1.508       .  S
C1500      C1501   1.399       .  A
C1500      H1505   1.083       .  S
C1501      C1502   1.409       .  A
C1502      C1503   1.504       .  S
C1503      H1507   1.110       .  S
C1503      H1508   1.107       .  S
C1503      H1509   1.110       .  S
C1506      H1510   1.111       .  S
C1506      H1511   1.109       .  S
C1506      H1512   1.111       .  S
C1513      C1514   1.402       .  A
C1513      C1518   1.405       .  A
C1513      H1520   1.084       .  S
C1514      C1515   1.416       .  A
C1515      C1516   1.403       .  A
C1515      C1522   1.508       .  S
C1516      C1517   1.401       .  A
C1516      H1521   1.084       .  S
C1517      C1518   1.415       .  A
C1518      C1519   1.508       .  S
C1519      H1523   1.111       .  S
C1519      H1524   1.109       .  S
C1519      H1525   1.111       .  S
C1522      H1526   1.108       .  S
C1522      H1527   1.106       .  S
C1522      H1528   1.111       .  S
C1529      C1530   1.400       .  A
C1529      C1534   1.407       .  A
C1529      H1536   1.084       .  S
C1530      C1531   1.408       .  A
C1531      C1532   1.400       .  A
C1531      C1538   1.506       .  S
C1532      C1533   1.405       .  A
C1532      H1537   1.084       .  S
C1533      C1534   1.420       .  A
C1534      C1535   1.506       .  S
C1535      H1539   1.111       .  S
C1535      H1540   1.109       .  S
C1535      H1541   1.108       .  S
C1538      H1542   1.107       .  S
C1538      H1543   1.110       .  S
C1538      H1544   1.111       .  S
C1545      C1546   1.400       .  A
C1545      C1550   1.408       .  A
C1545      H1552   1.083       .  S
C1546      C1547   1.410       .  A
C1547      C1548   1.401       .  A
C1547      C1554   1.503       .  S
C1548      C1549   1.407       .  A
C1548      H1553   1.084       .  S
C1549      C1550   1.422       .  A
C1550      C1551   1.507       .  S
C1551      H1555   1.109       .  S
C1551      H1556   1.109       .  S
C1551      H1557   1.111       .  S
C1554      H1558   1.110       .  S
C1554      H1559   1.105       .  S
C1554      H1560   1.111       .  S
C1561      C1562   1.399       .  A
C1561      C1566   1.406       .  A
C1561      H1568   1.083       .  S
C1562      C1563   1.407       .  A
C1563      C1564   1.400       .  A
C1563      C1570   1.507       .  S
C1564      C1565   1.409       .  A
C1564      H1569   1.084       .  S
C1565      C1566   1.421       .  A
C1566      C1567   1.508       .  S
C1567      H1571   1.111       .  S
C1567      H1572   1.110       .  S
C1567      H1573   1.110       .  S
C1570      H1574   1.110       .  S
C1570      H1575   1.110       .  S
C1570      H1576   1.111       .  S
C1577      C1578   1.400       .  A
C1577      C1582   1.408       .  A
C1577      H1584   1.084       .  S
C1578      C1579   1.409       .  A
C1579      C1580   1.402       .  A
C1579      C1586   1.508       .  S
C1580      C1581   1.409       .  A
C1580      H1585   1.083       .  S
C1581      C1582   1.423       .  A
C1582      C1583   1.507       .  S
C1583      H1587   1.111       .  S
C1583      H1588   1.111       .  S
C1583      H1589   1.110       .  S
C1586      H1590   1.109       .  S
C1586      H1591   1.109       .  S
C1586      H1592   1.111       .  S
C1593      C1594   1.399       .  A
C1593      C1598   1.407       .  A
C1593      H1600   1.083       .  S
C1594      C1595   1.410       .  A
C1595      C1596   1.403       .  A
C1595      C1602   1.505       .  S
C1596      C1597   1.407       .  A
C1596      H1601   1.084       .  S
C1597      C1598   1.420       .  A
C1598      C1599   1.507       .  S
C1599      H1603   1.111       .  S
C1599      H1604   1.109       .  S
C1599      H1605   1.111       .  S
C1602      H1606   1.108       .  S
C1602      H1607   1.111       .  S
C1602      H1608   1.110       .  S
C1609      C1610   1.398       .  A
C1609      C1614   1.403       .  A
C1609      H1616   1.083       .  S
C1610      C1611   1.409       .  A
C1611      C1612   1.401       .  A
C1611      C1618   1.506       .  S
C1612      C1613   1.405       .  A
C1612      H1617   1.084       .  S
C1613      C1614   1.421       .  A
C1614      C1615   1.509       .  S
C1615      H1619   1.111       .  S
C1615      H1620   1.111       .  S
C1615      H1621   1.109       .  S
C1618      H1622   1.107       .  S
C1618      H1623   1.110       .  S
C1618      H1624   1.111       .  S
C1625      C1626   1.398       .  A
C1625      C1630   1.404       .  A
C1625      H1632   1.085       .  S
C1626      C1627   1.407       .  A
C1627      C1628   1.402       .  A
C1627      C1634   1.505       .  S
C1628      C1629   1.408       .  A
C1628      H1633   1.084       .  S
C1629      C1630   1.422       .  A
C1630      C1631   1.507       .  S
C1631      H1635   1.111       .  S
C1631      H1636   1.105       .  S
C1631      H1637   1.110       .  S
C1634      H1638   1.106       .  S
C1634      H1639   1.110       .  S
C1634      H1640   1.111       .  S
C1641      C1642   1.402       .  A
C1641      C1646   1.406       .  A
C1641      H1648   1.083       .  S
C1642      C1643   1.413       .  A
C1643      C1644   1.403       .  A
C1643      C1650   1.505       .  S
C1644      C1645   1.404       .  A
C1644      H1649   1.085       .  S
C1645      C1646   1.414       .  A
C1646      C1647   1.506       .  S
C1647      H1651   1.111       .  S
C1647      H1652   1.110       .  S
C1647      H1653   1.111       .  S
C1650      H1654   1.110       .  S
C1650      H1655   1.108       .  S
C1650      H1656   1.110       .  S
C1657      C1658   1.401       .  A
C1657      C1662   1.401       .  A
C1657      H1664   1.084       .  S
C1658      C1659   1.417       .  A
C1659      C1660   1.405       .  A
C1659      C1666   1.509       .  S
C1660      C1661   1.400       .  A
C1660      H1665   1.084       .  S
C1661      C1662   1.413       .  A
C1662      C1663   1.508       .  S
C1663      H1667   1.111       .  S
C1663      H1668   1.109       .  S
C1663      H1669   1.110       .  S
C1666      H1670   1.108       .  S
C1666      H1671   1.109       .  S
C1666      H1672   1.111       .  S
C1673      C1674   1.402       .  A
C1673      C1678   1.404       .  A
C1673      H1680   1.084       .  S
C1674      C1675   1.413       .  A
C1675      C1676   1.400       .  A
C1675      C1682   1.505       .  S
C1676      C1677   1.399       .  A
C1676      H1681   1.083       .  S
C1677      C1678   1.412       .  A
C1678      C1679   1.506       .  S
C1679      H1683   1.111       .  S
C1679      H1684   1.109       .  S
C1679      H1685   1.110       .  S
C1682      H1686   1.109       .  S
C1682      H1687   1.110       .  S
C1682      H1688   1.111       .  S
C1689      C1690   1.408       .  A
C1689      C1694   1.403       .  A
C1689      H1696   1.084       .  S
C1690      C1691   1.421       .  A
C1691      C1692   1.405       .  A
C1691      C1698   1.508       .  S
C1692      C1693   1.400       .  A
C1692      H1697   1.083       .  S
C1693      C1694   1.409       .  A
C1694      C1695   1.503       .  S
C1695      H1699   1.111       .  S
C1695      H1700   1.105       .  S
C1695      H1701   1.110       .  S
C1698      H1702   1.111       .  S
C1698      H1703   1.110       .  S
C1698      H1704   1.111       .  S
C1705      C1706   1.401       .  A
C1705      C1710   1.405       .  A
C1705      H1712   1.083       .  S
C1706      C1707   1.408       .  A
C1707      C1708   1.400       .  A
C1707      C1714   1.507       .  S
C1708      C1709   1.404       .  A
C1708      H1713   1.084       .  S
C1709      C1710   1.416       .  A
C1710      C1711   1.507       .  S
C1711      H1715   1.111       .  S
C1711      H1716   1.110       .  S
C1711      H1717   1.110       .  S
C1714      H1718   1.108       .  S
C1714      H1719   1.110       .  S
C1714      H1720   1.111       .  S
C1721      C1722   1.402       .  A
C1721      C1726   1.403       .  A
C1721      H1728   1.084       .  S
C1722      C1723   1.414       .  A
C1723      C1724   1.404       .  A
C1723      C1730   1.507       .  S
C1724      C1725   1.401       .  A
C1724      H1729   1.084       .  S
C1725      C1726   1.413       .  A
C1726      C1727   1.508       .  S
C1727      H1731   1.111       .  S
C1727      H1732   1.109       .  S
C1727      H1733   1.111       .  S
C1730      H1734   1.108       .  S
C1730      H1735   1.111       .  S
C1730      H1736   1.111       .  S
C1737      C1738   1.399       .  A
C1737      C1742   1.404       .  A
C1737      H1744   1.084       .  S
C1738      C1739   1.409       .  A
C1739      C1740   1.400       .  A
C1739      C1746   1.505       .  S
C1740      C1741   1.407       .  A
C1740      H1745   1.084       .  S
C1741      C1742   1.421       .  A
C1742      C1743   1.508       .  S
C1743      H1747   1.111       .  S
C1743      H1748   1.111       .  S
C1743      H1749   1.109       .  S
C1746      H1750   1.110       .  S
C1746      H1751   1.107       .  S
C1746      H1752   1.110       .  S
C1753      C1754   1.399       .  A
C1753      C1758   1.403       .  A
C1753      H1760   1.084       .  S
C1754      C1755   1.407       .  A
C1755      C1756   1.399       .  A
C1755      C1762   1.506       .  S
C1756      C1757   1.406       .  A
C1756      H1761   1.084       .  S
C1757      C1758   1.417       .  A
C1758      C1759   1.506       .  S
C1759      H1763   1.111       .  S
C1759      H1764   1.108       .  S
C1759      H1765   1.109       .  S
C1762      H1766   1.110       .  S
C1762      H1767   1.108       .  S
C1762      H1768   1.111       .  S
C1769      C1770   1.401       .  A
C1769      C1774   1.403       .  A
C1769      H1776   1.084       .  S
C1770      C1771   1.409       .  A
C1771      C1772   1.400       .  A
C1771      C1778   1.507       .  S
C1772      C1773   1.405       .  A
C1772      H1777   1.084       .  S
C1773      C1774   1.413       .  A
C1774      C1775   1.507       .  S
C1775      H1779   1.111       .  S
C1775      H1780   1.111       .  S
C1775      H1781   1.109       .  S
C1778      H1782   1.110       .  S
C1778      H1783   1.106       .  S
C1778      H1784   1.111       .  S
C1785      C1786   1.401       .  A
C1785      C1790   1.407       .  A
C1785      H1792   1.083       .  S
C1786      C1787   1.409       .  A
C1787      C1788   1.400       .  A
C1787      C1794   1.505       .  S
C1788      C1789   1.409       .  A
C1788      H1793   1.084       .  S
C1789      C1790   1.422       .  A
C1790      C1791   1.507       .  S
C1791      H1795   1.111       .  S
C1791      H1796   1.110       .  S
C1791      H1797   1.110       .  S
C1794      H1798   1.107       .  S
C1794      H1799   1.110       .  S
C1794      H1800   1.111       .  S
C1801      C1802   1.398       .  A
C1801      C1806   1.404       .  A
C1801      H1808   1.084       .  S
C1802      C1803   1.407       .  A
C1803      C1804   1.399       .  A
C1803      C1810   1.506       .  S
C1804      C1805   1.408       .  A
C1804      H1809   1.084       .  S
C1805      C1806   1.421       .  A
C1806      C1807   1.508       .  S
C1807      H1811   1.111       .  S
C1807      H1812   1.110       .  S
C1807      H1813   1.110       .  S
C1810      H1814   1.107       .  S
C1810      H1815   1.110       .  S
C1810      H1816   1.111       .  S
C1817      C1818   1.399       .  A
C1817      C1822   1.402       .  A
C1817      H1824   1.083       .  S
C1818      C1819   1.408       .  A
C1819      C1820   1.403       .  A
C1819      C1826   1.506       .  S
C1820      C1821   1.406       .  A
C1820      H1825   1.084       .  S
C1821      C1822   1.416       .  A
C1822      C1823   1.508       .  S
C1823      H1827   1.111       .  S
C1823      H1828   1.109       .  S
C1823      H1829   1.111       .  S
C1826      H1830   1.109       .  S
C1826      H1831   1.110       .  S
C1826      H1832   1.111       .  S
C1833      C1834   1.400       .  A
C1833      C1838   1.407       .  A
C1833      H1840   1.083       .  S
C1834      C1835   1.410       .  A
C1835      C1836   1.404       .  A
C1835      C1842   1.504       .  S
C1836      C1837   1.409       .  A
C1836      H1841   1.084       .  S
C1837      C1838   1.423       .  A
C1838      C1839   1.507       .  S
C1839      H1843   1.111       .  S
C1839      H1844   1.110       .  S
C1839      H1845   1.110       .  S
C1842      H1846   1.110       .  S
C1842      H1847   1.107       .  S
C1842      H1848   1.110       .  S
C1849      C1850   1.402       .  A
C1849      C1854   1.404       .  A
C1849      H1856   1.084       .  S
C1850      C1851   1.416       .  A
C1851      C1852   1.401       .  A
C1851      C1858   1.508       .  S
C1852      C1853   1.398       .  A
C1852      H1857   1.084       .  S
C1853      C1854   1.413       .  A
C1854      C1855   1.507       .  S
C1855      H1859   1.111       .  S
C1855      H1860   1.110       .  S
C1855      H1861   1.109       .  S
C1858      H1862   1.106       .  S
C1858      H1863   1.108       .  S
C1858      H1864   1.111       .  S
C1865      C1866   1.400       .  A
C1865      C1870   1.407       .  A
C1865      H1872   1.084       .  S
C1866      C1867   1.409       .  A
C1867      C1868   1.399       .  A
C1867      C1874   1.507       .  S
C1868      C1869   1.406       .  A
C1868      H1873   1.084       .  S
C1869      C1870   1.422       .  A
C1870      C1871   1.507       .  S
C1871      H1875   1.111       .  S
C1871      H1876   1.110       .  S
C1871      H1877   1.110       .  S
C1874      H1878   1.109       .  S
C1874      H1879   1.106       .  S
C1874      H1880   1.111       .  S
C1881      C1882   1.400       .  A
C1881      C1886   1.406       .  A
C1881      H1888   1.083       .  S
C1882      C1883   1.409       .  A
C1883      C1884   1.400       .  A
C1883      C1890   1.503       .  S
C1884      C1885   1.405       .  A
C1884      H1889   1.084       .  S
C1885      C1886   1.420       .  A
C1886      C1887   1.508       .  S
C1887      H1891   1.111       .  S
C1887      H1892   1.109       .  S
C1887      H1893   1.111       .  S
C1890      H1894   1.110       .  S
C1890      H1895   1.105       .  S
C1890      H1896   1.110       .  S
C1897      C1898   1.401       .  A
C1897      C1902   1.406       .  A
C1897      H1904   1.084       .  S
C1898      C1899   1.415       .  A
C1899      C1900   1.405       .  A
C1899      C1906   1.507       .  S
C1900      C1901   1.402       .  A
C1900      H1905   1.084       .  S
C1901      C1902   1.418       .  A
C1902      C1903   1.509       .  S
C1903      H1907   1.111       .  S
C1903      H1908   1.111       .  S
C1903      H1909   1.109       .  S
C1906      H1910   1.108       .  S
C1906      H1911   1.110       .  S
C1906      H1912   1.110       .  S
C1913      C1914   1.403       .  A
C1913      C1918   1.406       .  A
C1913      H1920   1.084       .  S
C1914      C1915   1.419       .  A
C1915      C1916   1.406       .  A
C1915      C1922   1.509       .  S
C1916      C1917   1.400       .  A
C1916      H1921   1.084       .  S
C1917      C1918   1.414       .  A
C1918      C1919   1.507       .  S
C1919      H1923   1.111       .  S
C1919      H1924   1.111       .  S
C1919      H1925   1.109       .  S
C1922      H1926   1.108       .  S
C1922      H1927   1.107       .  S
C1922      H1928   1.111       .  S
C1929      C1930   1.400       .  A
C1929      C1934   1.405       .  A
C1929      H1936   1.084       .  S
C1930      C1931   1.409       .  A
C1931      C1932   1.403       .  A
C1931      C1938   1.504       .  S
C1932      C1933   1.409       .  A
C1932      H1937   1.084       .  S
C1933      C1934   1.423       .  A
C1934      C1935   1.508       .  S
C1935      H1939   1.111       .  S
C1935      H1940   1.110       .  S
C1935      H1941   1.110       .  S
C1938      H1942   1.106       .  S
C1938      H1943   1.110       .  S
C1938      H1944   1.110       .  S
C1945      C1946   1.400       .  A
C1945      C1950   1.403       .  A
C1945      H1952   1.084       .  S
C1946      C1947   1.408       .  A
C1947      C1948   1.402       .  A
C1947      C1954   1.506       .  S
C1948      C1949   1.406       .  A
C1948      H1953   1.084       .  S
C1949      C1950   1.415       .  A
C1950      C1951   1.506       .  S
C1951      H1955   1.111       .  S
C1951      H1956   1.109       .  S
C1951      H1957   1.109       .  S
C1954      H1958   1.109       .  S
C1954      H1959   1.110       .  S
C1954      H1960   1.111       .  S
C1961      C1962   1.401       .  A
C1961      C1966   1.402       .  A
C1961      H1968   1.084       .  S
C1962      C1963   1.410       .  A
C1963      C1964   1.402       .  A
C1963      C1970   1.507       .  S
C1964      C1965   1.405       .  A
C1964      H1969   1.084       .  S
C1965      C1966   1.413       .  A
C1966      C1967   1.506       .  S
C1967      H1971   1.111       .  S
C1967      H1972   1.110       .  S
C1967      H1973   1.110       .  S
C1970      H1974   1.106       .  S
C1970      H1975   1.110       .  S
C1970      H1976   1.111       .  S
C1977      C1978   1.400       .  A
C1977      C1982   1.407       .  A
C1977      H1984   1.083       .  S
C1978      C1979   1.411       .  A
C1979      C1980   1.403       .  A
C1979      C1986   1.505       .  S
C1980      C1981   1.410       .  A
C1980      H1985   1.084       .  S
C1981      C1982   1.423       .  A
C1982      C1983   1.507       .  S
C1983      H1987   1.111       .  S
C1983      H1988   1.110       .  S
C1983      H1989   1.110       .  S
C1986      H1990   1.107       .  S
C1986      H1991   1.110       .  S
C1986      H1992   1.110       .  S
C1993      C1994   1.398       .  A
C1993      C1998   1.402       .  A
C1993      H2000   1.085       .  S
C1994      C1995   1.408       .  A
C1995      C1996   1.404       .  A
C1995      C2002   1.505       .  S
C1996      C1997   1.409       .  A
C1996      H2001   1.083       .  S
C1997      C1998   1.423       .  A
C1998      C1999   1.509       .  S
C1999      H2003   1.111       .  S
C1999      H2004   1.110       .  S
C1999      H2005   1.109       .  S
C2002      H2006   1.110       .  S
C2002      H2007   1.107       .  S
C2002      H2008   1.111       .  S
C2009      C2010   1.396       .  A
C2009      C2014   1.399       .  A
C2009      H2016   1.085       .  S
C2010      C2011   1.411       .  A
C2011      C2012   1.405       .  A
C2011      C2018   1.507       .  S
C2012      C2013   1.410       .  A
C2012      H2017   1.084       .  S
C2013      C2014   1.424       .  A
C2014      C2015   1.510       .  S
C2015      H2019   1.111       .  S
C2015      H2020   1.110       .  S
C2015      H2021   1.111       .  S
C2018      H2022   1.107       .  S
C2018      H2023   1.110       .  S
C2018      H2024   1.110       .  S
C2025      C2026   1.402       .  A
C2025      C2030   1.405       .  A
C2025      H2032   1.083       .  S
C2026      C2027   1.415       .  A
C2027      C2028   1.403       .  A
C2027      C2034   1.505       .  S
C2028      C2029   1.402       .  A
C2028      H2033   1.084       .  S
C2029      C2030   1.412       .  A
C2030      C2031   1.504       .  S
C2031      H2035   1.111       .  S
C2031      H2036   1.111       .  S
C2031      H2037   1.109       .  S
C2034      H2038   1.107       .  S
C2034      H2039   1.110       .  S
C2034      H2040   1.110       .  S
C2041      C2042   1.403       .  A
C2041      C2046   1.406       .  A
C2041      H2048   1.084       .  S
C2042      C2043   1.416       .  A
C2043      C2044   1.404       .  A
C2043      C2050   1.508       .  S
C2044      C2045   1.399       .  A
C2044      H2049   1.083       .  S
C2045      C2046   1.413       .  A
C2046      C2047   1.507       .  S
C2047      H2051   1.111       .  S
C2047      H2052   1.110       .  S
C2047      H2053   1.109       .  S
C2050      H2054   1.111       .  S
C2050      H2055   1.109       .  S
C2050      H2056   1.111       .  S
C2057      C2058   1.400       .  A
C2057      C2062   1.409       .  A
C2057      H2064   1.083       .  S
C2058      C2059   1.411       .  A
C2059      C2060   1.402       .  A
C2059      C2066   1.508       .  S
C2060      C2061   1.408       .  A
C2060      H2065   1.084       .  S
C2061      C2062   1.422       .  A
C2062      C2063   1.507       .  S
C2063      H2067   1.111       .  S
C2063      H2068   1.109       .  S
C2063      H2069   1.110       .  S
C2066      H2070   1.108       .  S
C2066      H2071   1.110       .  S
C2066      H2072   1.110       .  S
C2073      C2074   1.398       .  A
C2073      C2078   1.405       .  A
C2073      H2080   1.084       .  S
C2074      C2075   1.410       .  A
C2075      C2076   1.404       .  A
C2075      C2082   1.505       .  S
C2076      C2077   1.407       .  A
C2076      H2081   1.084       .  S
C2077      C2078   1.420       .  A
C2078      C2079   1.507       .  S
C2079      H2083   1.111       .  S
C2079      H2084   1.109       .  S
C2079      H2085   1.110       .  S
C2082      H2086   1.111       .  S
C2082      H2087   1.110       .  S
C2082      H2088   1.109       .  S
C2089      C2090   1.402       .  A
C2089      C2094   1.403       .  A
C2089      H2096   1.084       .  S
C2090      C2091   1.416       .  A
C2091      C2092   1.401       .  A
C2091      C2098   1.508       .  S
C2092      C2093   1.399       .  A
C2092      H2097   1.084       .  S
C2093      C2094   1.412       .  A
C2094      C2095   1.507       .  S
C2095      H2099   1.111       .  S
C2095      H2100   1.111       .  S
C2095      H2101   1.109       .  S
C2098      H2102   1.107       .  S
C2098      H2103   1.108       .  S
C2098      H2104   1.111       .  S
C2105      C2106   1.402       .  A
C2105      C2110   1.409       .  A
C2105      H2112   1.084       .  S
C2106      C2107   1.410       .  A
C2107      C2108   1.398       .  A
C2107      C2114   1.509       .  S
C2108      C2109   1.407       .  A
C2108      H2113   1.084       .  S
C2109      C2110   1.418       .  A
C2110      C2111   1.506       .  S
C2111      H2115   1.111       .  S
C2111      H2116   1.111       .  S
C2111      H2117   1.109       .  S
C2114      H2118   1.110       .  S
C2114      H2119   1.107       .  S
C2114      H2120   1.110       .  S
C2121      C2122   1.407       .  A
C2121      C2126   1.403       .  A
C2121      H2128   1.084       .  S
C2122      C2123   1.422       .  A
C2123      C2124   1.407       .  A
C2123      C2130   1.507       .  S
C2124      C2125   1.399       .  A
C2124      H2129   1.083       .  S
C2125      C2126   1.410       .  A
C2126      C2127   1.503       .  S
C2127      H2131   1.110       .  S
C2127      H2132   1.105       .  S
C2127      H2133   1.110       .  S
C2130      H2134   1.109       .  S
C2130      H2135   1.107       .  S
C2130      H2136   1.111       .  S
C2137      C2138   1.399       .  A
C2137      C2142   1.405       .  A
C2137      H2144   1.085       .  S
C2138      C2139   1.407       .  A
C2139      C2140   1.403       .  A
C2139      C2146   1.504       .  S
C2140      C2141   1.410       .  A
C2140      H2145   1.083       .  S
C2141      C2142   1.423       .  A
C2142      C2143   1.508       .  S
C2143      H2147   1.111       .  S
C2143      H2148   1.110       .  S
C2143      H2149   1.110       .  S
C2146      H2150   1.110       .  S
C2146      H2151   1.105       .  S
C2146      H2152   1.111       .  S
C2153      C2154   1.406       .  A
C2153      C2158   1.405       .  A
C2153      H2160   1.084       .  S
C2154      C2155   1.420       .  A
C2155      C2156   1.402       .  A
C2155      C2162   1.509       .  S
C2156      C2157   1.398       .  A
C2156      H2161   1.083       .  S
C2157      C2158   1.410       .  A
C2158      C2159   1.506       .  S
C2159      H2163   1.111       .  S
C2159      H2164   1.110       .  S
C2159      H2165   1.109       .  S
C2162      H2166   1.109       .  S
C2162      H2167   1.111       .  S
C2162      H2168   1.111       .  S
C2169      C2170   1.403       .  A
C2169      C2174   1.407       .  A
C2169      H2176   1.084       .  S
C2170      C2171   1.413       .  A
C2171      C2172   1.400       .  A
C2171      C2178   1.505       .  S
C2172      C2173   1.403       .  A
C2172      H2177   1.085       .  S
C2173      C2174   1.417       .  A
C2174      C2175   1.507       .  S
C2175      H2179   1.110       .  S
C2175      H2180   1.111       .  S
C2175      H2181   1.107       .  S
C2178      H2182   1.107       .  S
C2178      H2183   1.110       .  S
C2178      H2184   1.111       .  S
C2185      C2186   1.396       .  A
C2185      C2190   1.399       .  A
C2185      H2192   1.084       .  S
C2186      C2187   1.408       .  A
C2187      C2188   1.403       .  A
C2187      C2194   1.506       .  S
C2188      C2189   1.409       .  A
C2188      H2193   1.083       .  S
C2189      C2190   1.423       .  A
C2190      C2191   1.509       .  S
C2191      H2195   1.111       .  S
C2191      H2196   1.109       .  S
C2191      H2197   1.110       .  S
C2194      H2198   1.104       .  S
C2194      H2199   1.110       .  S
C2194      H2200   1.111       .  S
C2201      C2202   1.398       .  A
C2201      C2206   1.399       .  A
C2201      H2208   1.083       .  S
C2202      C2203   1.411       .  A
C2203      C2204   1.401       .  A
C2203      C2210   1.506       .  S
C2204      C2205   1.400       .  A
C2204      H2209   1.084       .  S
C2205      C2206   1.414       .  A
C2206      C2207   1.509       .  S
C2207      H2211   1.111       .  S
C2207      H2212   1.111       .  S
C2207      H2213   1.109       .  S
C2210      H2214   1.109       .  S
C2210      H2215   1.109       .  S
C2210      H2216   1.111       .  S
C2217      C2218   1.400       .  A
C2217      C2222   1.402       .  A
C2217      H2224   1.083       .  S
C2218      C2219   1.412       .  A
C2219      C2220   1.404       .  A
C2219      C2226   1.504       .  S
C2220      C2221   1.404       .  A
C2220      H2225   1.084       .  S
C2221      C2222   1.415       .  A
C2222      C2223   1.507       .  S
C2223      H2227   1.111       .  S
C2223      H2228   1.109       .  S
C2223      H2229   1.109       .  S
C2226      H2230   1.110       .  S
C2226      H2231   1.107       .  S
C2226      H2232   1.110       .  S
C2233      C2234   1.409       .  A
C2233      C2238   1.404       .  A
C2233      H2240   1.083       .  S
C2234      C2235   1.425       .  A
C2235      C2236   1.403       .  A
C2235      C2242   1.509       .  S
C2236      C2237   1.397       .  A
C2236      H2241   1.085       .  S
C2237      C2238   1.409       .  A
C2238      C2239   1.505       .  S
C2239      H2243   1.111       .  S
C2239      H2244   1.110       .  S
C2239      H2245   1.105       .  S
C2242      H2246   1.110       .  S
C2242      H2247   1.110       .  S
C2242      H2248   1.111       .  S
C2249      C2250   1.407       .  A
C2249      C2254   1.401       .  A
C2249      H2256   1.083       .  S
C2250      C2251   1.423       .  A
C2251      C2252   1.407       .  A
C2251      C2258   1.508       .  S
C2252      C2253   1.400       .  A
C2252      H2257   1.083       .  S
C2253      C2254   1.414       .  A
C2254      C2255   1.511       .  S
C2255      H2259   1.111       .  S
C2255      H2260   1.108       .  S
C2255      H2261   1.107       .  S
C2258      H2262   1.111       .  S
C2258      H2263   1.110       .  S
C2258      H2264   1.111       .  S
C2265      C2266   1.402       .  A
C2265      C2270   1.403       .  A
C2265      H2272   1.083       .  S
C2266      C2267   1.414       .  A
C2267      C2268   1.407       .  A
C2267      C2274   1.507       .  S
C2268      C2269   1.404       .  A
C2268      H2273   1.083       .  S
C2269      C2270   1.413       .  A
C2270      C2271   1.504       .  S
C2271      H2275   1.110       .  S
C2271      H2276   1.105       .  S
C2271      H2277   1.110       .  S
C2274      H2278   1.111       .  S
C2274      H2279   1.110       .  S
C2274      H2280   1.111       .  S
C2281      C2282   1.401       .  A
C2281      C2286   1.401       .  A
C2281      H2288   1.084       .  S
C2282      C2283   1.415       .  A
C2283      C2284   1.403       .  A
C2283      C2290   1.507       .  S
C2284      C2285   1.400       .  A
C2284      H2289   1.085       .  S
C2285      C2286   1.413       .  A
C2286      C2287   1.507       .  S
C2287      H2291   1.111       .  S
C2287      H2292   1.109       .  S
C2287      H2293   1.111       .  S
C2290      H2294   1.110       .  S
C2290      H2295   1.108       .  S
C2290      H2296   1.110       .  S
C2297      C2298   1.402       .  A
C2297      C2302   1.404       .  A
C2297      H2304   1.084       .  S
C2298      C2299   1.416       .  A
C2299      C2300   1.403       .  A
C2299      C2306   1.508       .  S
C2300      C2301   1.399       .  A
C2300      H2305   1.084       .  S
C2301      C2302   1.414       .  A
C2302      C2303   1.508       .  S
C2303      H2307   1.111       .  S
C2303      H2308   1.109       .  S
C2303      H2309   1.111       .  S
C2306      H2310   1.108       .  S
C2306      H2311   1.108       .  S
C2306      H2312   1.111       .  S
C2313      C2314   1.400       .  A
C2313      C2318   1.406       .  A
C2313      H2320   1.084       .  S
C2314      C2315   1.410       .  A
C2315      C2316   1.404       .  A
C2315      C2322   1.504       .  S
C2316      C2317   1.410       .  A
C2316      H2321   1.084       .  S
C2317      C2318   1.422       .  A
C2318      C2319   1.507       .  S
C2319      H2323   1.111       .  S
C2319      H2324   1.110       .  S
C2319      H2325   1.110       .  S
C2322      H2326   1.106       .  S
C2322      H2327   1.111       .  S
C2322      H2328   1.110       .  S
C2329      C2330   1.402       .  A
C2329      C2334   1.401       .  A
C2329      H2336   1.084       .  S
C2330      C2331   1.416       .  A
C2331      C2332   1.401       .  A
C2331      C2338   1.508       .  S
C2332      C2333   1.401       .  A
C2332      H2337   1.085       .  S
C2333      C2334   1.412       .  A
C2334      C2335   1.508       .  S
C2335      H2339   1.111       .  S
C2335      H2340   1.111       .  S
C2335      H2341   1.109       .  S
C2338      H2342   1.107       .  S
C2338      H2343   1.110       .  S
C2338      H2344   1.110       .  S
C2345      C2346   1.409       .  A
C2345      C2350   1.400       .  A
C2345      H2352   1.084       .  S
C2346      C2347   1.420       .  A
C2347      C2348   1.407       .  A
C2347      C2354   1.506       .  S
C2348      C2349   1.400       .  A
C2348      H2353   1.084       .  S
C2349      C2350   1.407       .  A
C2350      C2351   1.507       .  S
C2351      H2355   1.111       .  S
C2351      H2356   1.110       .  S
C2351      H2357   1.110       .  S
C2354      H2358   1.110       .  S
C2354      H2359   1.110       .  S
C2354      H2360   1.111       .  S
C2361      C2362   1.409       .  A
C2361      C2366   1.401       .  A
C2361      H2368   1.084       .  S
C2362      C2363   1.422       .  A
C2363      C2364   1.407       .  A
C2363      C2370   1.507       .  S
C2364      C2365   1.400       .  A
C2364      H2369   1.083       .  S
C2365      C2366   1.410       .  A
C2366      C2367   1.506       .  S
C2367      H2371   1.110       .  S
C2367      H2372   1.110       .  S
C2367      H2373   1.106       .  S
C2370      H2374   1.109       .  S
C2370      H2375   1.110       .  S
C2370      H2376   1.111       .  S
C2377      C2378   1.404       .  A
C2377      C2382   1.402       .  A
C2377      H2384   1.084       .  S
C2378      C2379   1.421       .  A
C2379      C2380   1.403       .  A
C2379      C2386   1.509       .  S
C2380      C2381   1.398       .  A
C2380      H2385   1.084       .  S
C2381      C2382   1.410       .  A
C2382      C2383   1.506       .  S
C2383      H2387   1.111       .  S
C2383      H2388   1.106       .  S
C2383      H2389   1.110       .  S
C2386      H2390   1.111       .  S
C2386      H2391   1.109       .  S
C2386      H2392   1.111       .  S
C2393      C2394   1.398       .  A
C2393      C2398   1.404       .  A
C2393      H2400   1.084       .  S
C2394      C2395   1.406       .  A
C2395      C2396   1.402       .  A
C2395      C2402   1.505       .  S
C2396      C2397   1.408       .  A
C2396      H2401   1.084       .  S
C2397      C2398   1.422       .  A
C2398      C2399   1.508       .  S
C2399      H2403   1.111       .  S
C2399      H2404   1.108       .  S
C2399      H2405   1.109       .  S
C2402      H2406   1.108       .  S
C2402      H2407   1.110       .  S
C2402      H2408   1.111       .  S
C2409      C2410   1.402       .  A
C2409      C2414   1.405       .  A
C2409      H2416   1.083       .  S
C2410      C2411   1.412       .  A
C2411      C2412   1.401       .  A
C2411      C2418   1.505       .  S
C2412      C2413   1.403       .  A
C2412      H2417   1.085       .  S
C2413      C2414   1.413       .  A
C2414      C2415   1.506       .  S
C2415      H2419   1.111       .  S
C2415      H2420   1.110       .  S
C2415      H2421   1.110       .  S
C2418      H2422   1.110       .  S
C2418      H2423   1.107       .  S
C2418      H2424   1.111       .  S
C2425      C2426   1.399       .  A
C2425      C2430   1.402       .  A
C2425      H2432   1.085       .  S
C2426      C2427   1.414       .  A
C2427      C2428   1.403       .  A
C2427      C2434   1.508       .  S
C2428      C2429   1.401       .  A
C2428      H2433   1.084       .  S
C2429      C2430   1.416       .  A
C2430      C2431   1.507       .  S
C2431      H2435   1.110       .  S
C2431      H2436   1.108       .  S
C2431      H2437   1.110       .  S
C2434      H2438   1.109       .  S
C2434      H2439   1.110   1_545  S
C2434      H2440   1.111       .  S
C2441      C2442   1.401       .  A
C2441      C2446   1.402       .  A
C2441      H2448   1.084       .  S
C2442      C2443   1.417       .  A
C2443      C2444   1.404       .  A
C2443      C2450   1.509       .  S
C2444      C2445   1.401       .  A
C2444      H2449   1.084       .  S
C2445      C2446   1.413       .  A
C2446      C2447   1.506       .  S
C2447      H2451   1.111       .  S
C2447      H2452   1.109       .  S
C2447      H2453   1.110       .  S
C2450      H2454   1.107       .  S
C2450      H2455   1.109       .  S
C2450      H2456   1.111       .  S
C2457      C2458   1.402       .  A
C2457      C2462   1.410       .  A
C2457      H2464   1.084       .  S
C2458      C2459   1.409       .  A
C2459      C2460   1.404       .  A
C2459      C2466   1.504       .  S
C2460      C2461   1.409       .  A
C2460      H2465   1.084       .  S
C2461      C2462   1.423       .  A
C2462      C2463   1.507       .  S
C2463      H2467   1.111       .  S
C2463      H2468   1.110       .  S
C2463      H2469   1.110       .  S
C2466      H2470   1.105       .  S
C2466      H2471   1.110       .  S
C2466      H2472   1.111       .  S
C2473      C2474   1.400       .  A
C2473      C2478   1.407       .  A
C2473      H2480   1.083       .  S
C2474      C2475   1.412       .  A
C2475      C2476   1.401       .  A
C2475      C2482   1.509       .  S
C2476      C2477   1.408       .  A
C2476      H2481   1.083       .  S
C2477      C2478   1.422       .  A
C2478      C2479   1.507       .  S
C2479      H2483   1.111       .  S
C2479      H2484   1.110       .  S
C2479      H2485   1.110       .  S
C2482      H2486   1.109       .  S
C2482      H2487   1.108       .  S
C2482      H2488   1.111       .  S
C2489      C2490   1.402       .  A
C2489      C2494   1.405       .  A
C2489      H2496   1.083       .  S
C2490      C2491   1.414       .  A
C2491      C2492   1.402       .  A
C2491      C2498   1.508       .  S
C2492      C2493   1.401       .  A
C2492      H2497   1.084       .  S
C2493      C2494   1.415       .  A
C2494      C2495   1.507       .  S
C2495      H2499   1.111       .  S
C2495      H2500   1.109       .  S
C2495      H2501   1.111       .  S
C2498      H2502   1.108       .  S
C2498      H2503   1.109       .  S
C2498      H2504   1.111       .  S
C2505      C2506   1.402       .  A
C2505      C2510   1.408       .  A
C2505      H2512   1.083       .  S
C2506      C2507   1.409       .  A
C2507      C2508   1.403       .  A
C2507      C2514   1.504       .  S
C2508      C2509   1.406       .  A
C2508      H2513   1.084       .  S
C2509      C2510   1.418       .  A
C2510      C2511   1.507       .  S
C2511      H2515   1.109       .  S
C2511      H2516   1.111       .  S
C2511      H2517   1.111       .  S
C2514      H2518   1.107       .  S
C2514      H2519   1.110       .  S
C2514      H2520   1.110       .  S
C2521      C2522   1.399       .  A
C2521      C2526   1.401       .  A
C2521      H2528   1.084       .  S
C2522      C2523   1.408       .  A
C2523      C2524   1.398       .  A
C2523      C2530   1.507       .  S
C2524      C2525   1.404       .  A
C2524      H2529   1.084       .  S
C2525      C2526   1.416       .  A
C2526      C2527   1.508       .  S
C2527      H2531   1.111       .  S
C2527      H2532   1.111       .  S
C2527      H2533   1.109       .  S
C2530      H2534   1.110       .  S
C2530      H2535   1.107       .  S
C2530      H2536   1.111       .  S
C2537      C2538   1.400       .  A
C2537      C2542   1.403       .  A
C2537      H2544   1.084       .  S
C2538      C2539   1.406       .  A
C2539      C2540   1.397       .  A
C2539      C2546   1.506       .  S
C2540      C2541   1.406       .  A
C2540      H2545   1.084       .  S
C2541      C2542   1.416       .  A
C2542      C2543   1.507       .  S
C2543      H2547   1.111       .  S
C2543      H2548   1.110       .  S
C2543      H2549   1.109       .  S
C2546      H2550   1.110       .  S
C2546      H2551   1.107       .  S
C2546      H2552   1.111       .  S
C2553      C2554   1.400       .  A
C2553      C2558   1.406       .  A
C2553      H2560   1.083       .  S
C2554      C2555   1.411       .  A
C2555      C2556   1.401       .  A
C2555      C2562   1.505       .  S
C2556      C2557   1.408       .  A
C2556      H2561   1.084       .  S
C2557      C2558   1.423       .  A
C2558      C2559   1.508       .  S
C2559      H2563   1.111       .  S
C2559      H2564   1.110       .  S
C2559      H2565   1.110       .  S
C2562      H2566   1.107       .  S
C2562      H2567   1.110       .  S
C2562      H2568   1.111       .  S
C2569      C2570   1.401       .  A
C2569      C2574   1.405       .  A
C2569      H2576   1.083       .  S
C2570      C2571   1.414       .  A
C2571      C2572   1.403       .  A
C2571      C2578   1.507       .  S
C2572      C2573   1.402       .  A
C2572      H2577   1.084       .  S
C2573      C2574   1.415       .  A
C2574      C2575   1.506       .  S
C2575      H2579   1.111       .  S
C2575      H2580   1.109       .  S
C2575      H2581   1.110       .  S
C2578      H2582   1.109       .  S
C2578      H2583   1.110       .  S
C2578      H2584   1.111       .  S
C2585      C2586   1.405       .  A
C2585      C2590   1.404       .  A
C2585      H2592   1.084       .  S
C2586      C2587   1.413       .  A
C2587      C2588   1.405       .  A
C2587      C2594   1.507       .  S
C2588      C2589   1.404       .  A
C2588      H2593   1.084       .  S
C2589      C2590   1.412       .  A
C2590      C2591   1.506       .  S
C2591      H2595   1.111       .  S
C2591      H2596   1.105       .  S
C2591      H2597   1.110       .  S
C2594      H2598   1.110       .  S
C2594      H2599   1.111       .  S
C2594      H2600   1.111       .  S
C2601      C2602   1.409       .  A
C2601      C2606   1.405       .  A
C2601      H2608   1.083       .  S
C2602      C2603   1.424       .  A
C2603      C2604   1.408       .  A
C2603      C2610   1.507       .  S
C2604      C2605   1.401       .  A
C2604      H2609   1.084       .  S
C2605      C2606   1.409       .  A
C2606      C2607   1.504       .  S
C2607      H2611   1.111       .  S
C2607      H2612   1.101       .  S
C2607      H2613   1.109       .  S
C2610      H2614   1.110       .  S
C2610      H2615   1.110       .  S
C2610      H2616   1.111       .  S
C2617      C2618   1.408       .  A
C2617      C2622   1.401       .  A
C2617      H2624   1.083       .  S
C2618      C2619   1.422       .  A
C2619      C2620   1.400       .  A
C2619      C2626   1.508       .  S
C2620      C2621   1.395       .  A
C2620      H2625   1.084       .  S
C2621      C2622   1.407       .  A
C2622      C2623   1.506       .  S
C2623      H2627   1.111       .  S
C2623      H2628   1.108       .  S
C2623      H2629   1.110       .  S
C2626      H2630   1.111       .  S
C2626      H2631   1.106       .  S
C2626      H2632   1.110       .  S
C2633      C2634   1.400       .  A
C2633      C2638   1.405       .  A
C2633      H2640   1.084       .  S
C2634      C2635   1.405       .  A
C2635      C2636   1.395       .  A
C2635      C2642   1.509       .  S
C2636      C2637   1.409       .  A
C2636      H2641   1.084       .  S
C2637      C2638   1.420       .  A
C2638      C2639   1.507       .  S
C2639      H2643   1.111       .  S
C2639      H2644   1.110       .  S
C2639      H2645   1.110       .  S
C2642      H2646   1.109       .  S
C2642      H2647   1.110       .  S
C2642      H2648   1.111       .  S
C2649      C2650   1.405       .  A
C2649      C2654   1.406       .  A
C2649      H2656   1.084       .  S
C2650      C2651   1.415       .  A
C2651      C2652   1.404       .  A
C2651      C2658   1.508       .  S
C2652      C2653   1.400       .  A
C2652      H2657   1.082       .  S
C2653      C2654   1.411       .  A
C2654      C2655   1.504       .  S
C2655      H2659   1.110       .  S
C2655      H2660   1.109       .  S
C2655      H2661   1.110       .  S
C2658      H2662   1.109       .  S
C2658      H2663   1.111       .  S
C2658      H2664   1.111       .  S
C2665      C2666   1.397       .  A
C2665      C2670   1.403       .  A
C2665      H2672   1.084       .  S
C2666      C2667   1.408       .  A
C2667      C2668   1.403       .  A
C2667      C2674   1.506       .  S
C2668      C2669   1.408       .  A
C2668      H2673   1.083       .  S
C2669      C2670   1.423       .  A
C2670      C2671   1.509       .  S
C2671      H2675   1.111       .  S
C2671      H2676   1.109       .  S
C2671      H2677   1.110       .  S
C2674      H2678   1.106       .  S
C2674      H2679   1.110       .  S
C2674      H2680   1.111       .  S
C2681      C2682   1.400       .  A
C2681      C2686   1.406       .  A
C2681      H2688   1.084       .  S
C2682      C2683   1.406       .  A
C2683      C2684   1.399       .  A
C2683      C2690   1.508       .  S
C2684      C2685   1.410       .  A
C2684      H2689   1.083       .  S
C2685      C2686   1.422       .  A
C2686      C2687   1.507       .  S
C2687      H2691   1.111       .  S
C2687      H2692   1.110       .  S
C2687      H2693   1.110       .  S
C2690      H2694   1.109       .  S
C2690      H2695   1.110       .  S
C2690      H2696   1.111       .  S
C2697      C2698   1.399       .  A
C2697      C2702   1.402       .  A
C2697      H2704   1.084       .  S
C2698      C2699   1.410       .  A
C2699      C2700   1.403       .  A
C2699      C2706   1.505       .  S
C2700      C2701   1.405       .  A
C2700      H2705   1.084       .  S
C2701      C2702   1.419       .  A
C2702      C2703   1.509       .  S
C2703      H2707   1.110       .  S
C2703      H2708   1.106       .  S
C2703      H2709   1.111       .  S
C2706      H2710   1.110       .  S
C2706      H2711   1.108       .  S
C2706      H2712   1.110       .  S
C2713      C2714   1.398       .  A
C2713      C2718   1.399       .  A
C2713      H2720   1.084       .  S
C2714      C2715   1.414       .  A
C2715      C2716   1.404       .  A
C2715      C2722   1.507       .  S
C2716      C2717   1.401       .  A
C2716      H2721   1.084       .  S
C2717      C2718   1.414       .  A
C2718      C2719   1.505       .  S
C2719      H2723   1.111       .  S
C2719      H2724   1.109       .  S
C2719      H2725   1.111       .  S
C2722      H2726   1.109       .  S
C2722      H2727   1.107       .  S
C2722      H2728   1.111       .  S
C2729      C2730   1.397       .  A
C2729      C2734   1.398       .  A
C2729      H2736   1.083       .  S
C2730      C2731   1.412       .  A
C2731      C2732   1.406       .  A
C2731      C2738   1.506       .  S
C2732      C2733   1.404       .  A
C2732      H2737   1.084       .  S
C2733      C2734   1.416       .  A
C2734      C2735   1.509       .  S
C2735      H2739   1.111       .  S
C2735      H2740   1.109       .  S
C2735      H2741   1.111       .  S
C2738      H2742   1.109       .  S
C2738      H2743   1.110       .  S
C2738      H2744   1.111       .  S
C2745      C2746   1.400       .  A
C2745      C2750   1.407       .  A
C2745      H2752   1.083       .  S
C2746      C2747   1.410       .  A
C2747      C2748   1.404       .  A
C2747      C2754   1.504       .  S
C2748      C2749   1.407       .  A
C2748      H2753   1.084       .  S
C2749      C2750   1.420       .  A
C2750      C2751   1.507       .  S
C2751      H2755   1.111       .  S
C2751      H2756   1.109       .  S
C2751      H2757   1.111       .  S
C2754      H2758   1.110       .  S
C2754      H2759   1.107       .  S
C2754      H2760   1.111       .  S
C2761      C2762   1.397       .  A
C2761      C2766   1.404       .  A
C2761      H2768   1.084       .  S
C2762      C2763   1.409       .  A
C2763      C2764   1.404       .  A
C2763      C2770   1.505       .  S
C2764      C2765   1.408       .  A
C2764      H2769   1.084       .  S
C2765      C2766   1.423       .  A
C2766      C2767   1.508       .  S
C2767      H2771   1.111       .  S
C2767      H2772   1.110       .  S
C2767      H2773   1.107       .  S
C2770      H2774   1.110       .  S
C2770      H2775   1.106       .  S
C2770      H2776   1.111       .  S
C2777      C2778   1.399       .  A
C2777      C2782   1.402       .  A
C2777      H2784   1.085       .  S
C2778      C2779   1.412       .  A
C2779      C2780   1.405       .  A
C2779      C2786   1.506       .  S
C2780      C2781   1.410       .  A
C2780      H2785   1.084       .  S
C2781      C2782   1.424       .  A
C2782      C2783   1.509       .  S
C2783      H2787   1.111       .  S
C2783      H2788   1.110       .  S
C2783      H2789   1.110       .  S
C2786      H2790   1.110       .  S
C2786      H2791   1.106       .  S
C2786      H2792   1.110       .  S
C2793      C2794   1.402       .  A
C2793      C2798   1.403       .  A
C2793      H2800   1.085       .  S
C2794      C2795   1.413       .  A
C2795      C2796   1.405       .  A
C2795      C2802   1.507       .  S
C2796      C2797   1.404       .  A
C2796      H2801   1.084       .  S
C2797      C2798   1.414       .  A
C2798      C2799   1.506       .  S
C2799      H2803   1.110       .  S
C2799      H2804   1.111       .  S
C2799      H2805   1.107       .  S
C2802      H2806   1.111       .  S
C2802      H2807   1.110       .  S
C2802      H2808   1.111       .  S
C2809      C2810   1.399       .  A
C2809      C2814   1.402       .  A
C2809      H2816   1.084       .  S
C2810      C2811   1.412       .  A
C2811      C2812   1.401       .  A
C2811      C2818   1.508       .  S
C2812      C2813   1.401       .  A
C2812      H2817   1.084       .  S
C2813      C2814   1.415       .  A
C2814      C2815   1.508       .  S
C2815      H2819   1.111       .  S
C2815      H2820   1.108       .  S
C2815      H2821   1.108       .  S
C2818      H2822   1.111       .  S
C2818      H2823   1.109       .  S
C2818      H2824   1.111       .  S
C2825      C2826   1.399       .  A
C2825      C2830   1.399       .  A
C2825      H2832   1.083       .  S
C2826      C2827   1.411       .  A
C2827      C2828   1.402       .  A
C2827      C2834   1.506       .  S
C2828      C2829   1.402       .  A
C2828      H2833   1.084       .  S
C2829      C2830   1.414       .  A
C2830      C2831   1.509       .  S
C2831      H2835   1.111       .  S
C2831      H2836   1.111       .  S
C2831      H2837   1.109       .  S
C2834      H2838   1.110       .  S
C2834      H2839   1.109       .  S
C2834      H2840   1.111       .  S
C2841      C2842   1.400       .  A
C2841      C2846   1.406       .  A
C2841      H2848   1.084       .  S
C2842      C2843   1.410       .  A
C2843      C2844   1.404       .  A
C2843      C2850   1.504       .  S
C2844      C2845   1.408       .  A
C2844      H2849   1.084       .  S
C2845      C2846   1.421       .  A
C2846      C2847   1.508       .  S
C2847      H2851   1.111       .  S
C2847      H2852   1.109       .  S
C2847      H2853   1.111       .  S
C2850      H2854   1.110       .  S
C2850      H2855   1.107       .  S
C2850      H2856   1.110       .  S
C2857      C2858   1.399       .  A
C2857      C2862   1.403       .  A
C2857      H2864   1.084       .  S
C2858      C2859   1.411       .  A
C2859      C2860   1.403       .  A
C2859      C2866   1.506       .  S
C2860      C2861   1.402       .  A
C2860      H2865   1.084       .  S
C2861      C2862   1.416       .  A
C2862      C2863   1.506       .  S
C2863      H2867   1.111       .  S
C2863      H2868   1.110       .  S
C2863      H2869   1.109       .  S
C2866      H2870   1.110       .  S
C2866      H2871   1.109       .  S
C2866      H2872   1.111       .  S
C2873      C2874   1.402       .  A
C2873      C2878   1.405       .  A
C2873      H2880   1.084       .  S
C2874      C2875   1.415       .  A
C2875      C2876   1.403       .  A
C2875      C2882   1.508       .  S
C2876      C2877   1.401       .  A
C2876      H2881   1.084       .  S
C2877      C2878   1.415       .  A
C2878      C2879   1.507       .  S
C2879      H2883   1.111       .  S
C2879      H2884   1.110       .  S
C2879      H2885   1.109       .  S
C2882      H2886   1.108       .  S
C2882      H2887   1.108       .  S
C2882      H2888   1.111       .  S
C2889      C2890   1.399       .  A
C2889      C2894   1.407       .  A
C2889      H2896   1.083       .  S
C2890      C2891   1.410       .  A
C2891      C2892   1.405       .  A
C2891      C2898   1.504       .  S
C2892      C2893   1.409       .  A
C2892      H2897   1.084       .  S
C2893      C2894   1.422       .  A
C2894      C2895   1.507       .  S
C2895      H2899   1.111       .  S
C2895      H2900   1.110       .  S
C2895      H2901   1.111       .  S
C2898      H2902   1.110       .  S
C2898      H2903   1.107       .  S
C2898      H2904   1.110       .  S
C2905      C2906   1.401       .  A
C2905      C2910   1.405       .  A
C2905      H2912   1.084       .  S
C2906      C2907   1.407       .  A
C2907      C2908   1.399       .  A
C2907      C2914   1.506       .  S
C2908      C2909   1.406       .  A
C2908      H2913   1.084       .  S
C2909      C2910   1.417       .  A
C2910      C2911   1.507       .  S
C2911      H2915   1.111       .  S
C2911      H2916   1.110       .  S
C2911      H2917   1.111       .  S
C2914      H2918   1.107       .  S
C2914      H2919   1.110       .  S
C2914      H2920   1.111       .  S
C2921      C2922   1.402       .  A
C2921      C2926   1.405       .  A
C2921      H2928   1.084       .  S
C2922      C2923   1.411       .  A
C2923      C2924   1.400       .  A
C2923      C2930   1.508       .  S
C2924      C2925   1.405       .  A
C2924      H2929   1.085       .  S
C2925      C2926   1.415       .  A
C2926      C2927   1.507       .  S
C2927      H2931   1.111       .  S
C2927      H2932   1.110       .  S
C2927      H2933   1.110       .  S
C2930      H2934   1.107       .  S
C2930      H2935   1.110       .  S
C2930      H2936   1.110       .  S
C2937      C2938   1.400       .  A
C2937      C2942   1.406       .  A
C2937      H2944   1.083       .  S
C2938      C2939   1.410       .  A
C2939      C2940   1.402       .  A
C2939      C2946   1.505       .  S
C2940      C2941   1.409       .  A
C2940      H2945   1.084       .  S
C2941      C2942   1.423       .  A
C2942      C2943   1.508       .  S
C2943      H2947   1.111       .  S
C2943      H2948   1.110       .  S
C2943      H2949   1.110       .  S
C2946      H2950   1.110       .  S
C2946      H2951   1.107       .  S
C2946      H2952   1.111       .  S
C2953      C2954   1.402       .  A
C2953      C2958   1.401       .  A
C2953      H2960   1.084       .  S
C2954      C2955   1.414       .  A
C2955      C2956   1.399       .  A
C2955      C2962   1.508       .  S
C2956      C2957   1.400       .  A
C2956      H2961   1.085       .  S
C2957      C2958   1.413       .  A
C2958      C2959   1.508       .  S
C2959      H2963   1.111       .  S
C2959      H2964   1.111       .  S
C2959      H2965   1.109       .  S
C2962      H2966   1.107       .  S
C2962      H2967   1.110       .  S
C2962      H2968   1.111       .  S
C2969      C2970   1.401       .  A
C2969      C2974   1.405       .  A
C2969      H2976   1.084       .  S
C2970      C2971   1.406       .  A
C2971      C2972   1.397       .  A
C2971      C2978   1.506       .  S
C2972      C2973   1.405       .  A
C2972      H2977   1.084       .  S
C2973      C2974   1.416       .  A
C2974      C2975   1.507       .  S
C2975      H2979   1.111       .  S
C2975      H2980   1.111       .  S
C2975      H2981   1.110       .  S
C2978      H2982   1.110       .  S
C2978      H2983   1.108       .  S
C2978      H2984   1.111       .  S
C2985      C2986   1.399       .  A
C2985      C2990   1.406       .  A
C2985      H2992   1.083       .  S
C2986      C2987   1.412       .  A
C2987      C2988   1.402       .  A
C2987      C2994   1.505       .  S
C2988      C2989   1.408       .  A
C2988      H2993   1.084       .  S
C2989      C2990   1.422       .  A
C2990      C2991   1.508       .  S
C2991      H2995   1.111       .  S
C2991      H2996   1.109       .  S
C2991      H2997   1.111       .  S
C2994      H2998   1.110       .  S
C2994      H2999   1.106       .  S
C2994      H3000   1.110       .  S
C3001      C3002   1.399       .  A
C3001      C3006   1.403       .  A
C3001      H3008   1.085       .  S
C3002      C3003   1.411       .  A
C3003      C3004   1.407       .  A
C3003      C3010   1.506       .  S
C3004      C3005   1.412       .  A
C3004      H3009   1.084       .  S
C3005      C3006   1.424       .  A
C3006      C3007   1.509       .  S
C3007      H3011   1.111       .  S
C3007      H3012   1.110       .  S
C3007      H3013   1.110       .  S
C3010      H3014   1.107       .  S
C3010      H3015   1.110       .  S
C3010      H3016   1.110       .  S
C3017      C3018   1.401       .  A
C3017      C3022   1.405       .  A
C3017      H3024   1.084       .  S
C3018      C3019   1.417       .  A
C3019      C3020   1.405       .  A
C3019      C3026   1.507       .  S
C3020      C3021   1.400       .  A
C3020      H3025   1.084       .  S
C3021      C3022   1.415       .  A
C3022      C3023   1.507       .  S
C3023      H3027   1.111       .  S
C3023      H3028   1.109       .  S
C3023      H3029   1.107       .  S
C3026      H3030   1.109       .  S
C3026      H3031   1.110       .  S
C3026      H3032   1.111       .  S
C3033      C3034   1.405       .  A
C3033      C3038   1.404       .  A
C3033      H3040   1.084       .  S
C3034      C3035   1.418       .  A
C3035      C3036   1.406       .  A
C3035      C3042   1.508       .  S
C3036      C3037   1.400       .  A
C3036      H3041   1.083       .  S
C3037      C3038   1.410       .  A
C3038      C3039   1.504       .  S
C3039      H3043   1.110       .  S
C3039      H3044   1.107       .  S
C3039      H3045   1.110       .  S
C3042      H3046   1.111       .  S
C3042      H3047   1.109       .  S
C3042      H3048   1.111       .  S
C3049      C3050   1.401       .  A
C3049      C3054   1.404       .  A
C3049      H3056   1.084       .  S
C3050      C3051   1.410       .  A
C3051      C3052   1.402       .  A
C3051      C3058   1.507       .  S
C3052      C3053   1.404       .  A
C3052      H3057   1.084       .  S
C3053      C3054   1.415       .  A
C3054      C3055   1.507       .  S
C3055      H3059   1.111       .  S
C3055      H3060   1.110       .  S
C3055      H3061   1.110       .  S
C3058      H3062   1.106       .  S
C3058      H3063   1.110       .  S
C3058      H3064   1.111       .  S
C3065      C3066   1.401       .  A
C3065      C3070   1.405       .  A
C3065      H3072   1.084       .  S
C3066      C3067   1.407       .  A
C3067      C3068   1.400       .  A
C3067      C3074   1.506       .  S
C3068      C3069   1.406       .  A
C3068      H3073   1.084       .  S
C3069      C3070   1.416       .  A
C3070      C3071   1.507       .  S
C3071      H3075   1.111       .  S
C3071      H3076   1.109       .  S
C3071      H3077   1.111       .  S
C3074      H3078   1.108       .  S
C3074      H3079   1.110       .  S
C3074      H3080   1.111       .  S
C3081      C3082   1.400       .  A
C3081      C3086   1.406       .  A
C3081      H3088   1.083       .  S
C3082      C3083   1.410       .  A
C3083      C3084   1.402       .  A
C3083      C3090   1.506       .  S
C3084      C3085   1.409       .  A
C3084      H3089   1.084       .  S
C3085      C3086   1.423       .  A
C3086      C3087   1.507       .  S
C3087      H3091   1.111       .  S
C3087      H3092   1.110       .  S
C3087      H3093   1.110       .  S
C3090      H3094   1.110       .  S
C3090      H3095   1.107       .  S
C3090      H3096   1.111       .  S
C3097      C3098   1.400       .  A
C3097      C3102   1.402       .  A
C3097      H3104   1.082       .  S
C3098      C3099   1.413       .  A
C3099      C3100   1.405       .  A
C3099      C3106   1.506       .  S
C3100      C3101   1.402       .  A
C3100      H3105   1.084       .  S
C3101      C3102   1.415       .  A
C3102      C3103   1.509       .  S
C3103      H3107   1.111       .  S
C3103      H3108   1.111       .  S
C3103      H3109   1.109       .  S
C3106      H3110   1.110       .  S
C3106      H3111   1.109       .  S
C3106      H3112   1.111       .  S
C3113      C3114   1.403       .  A
C3113      C3118   1.405       .  A
C3113      H3120   1.084       .  S
C3114      C3115   1.418       .  A
C3115      C3116   1.405       .  A
C3115      C3122   1.509       .  S
C3116      C3117   1.400       .  A
C3116      H3121   1.084       .  S
C3117      C3118   1.412       .  A
C3118      C3119   1.507       .  S
C3119      H3123   1.111       .  S
C3119      H3124   1.111       .  S
C3119      H3125   1.110       .  S
C3122      H3126   1.109       .  S
C3122      H3127   1.107       .  S
C3122      H3128   1.111       .  S
C3129      C3130   1.400       .  A
C3129      C3134   1.405       .  A
C3129      H3136   1.084       .  S
C3130      C3131   1.408       .  A
C3131      C3132   1.404       .  A
C3131      C3138   1.504       .  S
C3132      C3133   1.409       .  A
C3132      H3137   1.084       .  S
C3133      C3134   1.421       .  A
C3134      C3135   1.508       .  S
C3135      H3139   1.111       .  S
C3135      H3140   1.110       .  S
C3135      H3141   1.111       .  S
C3138      H3142   1.109       .  S
C3138      H3143   1.105       .  S
C3138      H3144   1.111       .  S
