geometry optimzed in LAMMPS
_audit_creation_date              2020-11-30 
_audit_creation_method            'lammps2cif' 
_symmetry_space_group_name_H-M    'P1' 
_symmetry_Int_Tables_number       1 
_symmetry_cell_setting            triclinic 
loop_ 
_symmetry_equiv_pos_as_xyz 
  x,y,z 
_cell_length_a                    31.644073250136273 
_cell_length_b                    31.78272875746662 
_cell_length_c                    25.551604039349296 
_cell_angle_alpha                 90.64613635980184 
_cell_angle_beta                  90.17351082469415 
_cell_angle_gamma                 119.90296642564098 
loop_ 
_atom_site_label 
_atom_site_type_symbol 
_atom_site_fract_x 
_atom_site_fract_y 
_atom_site_fract_z 
_atom_site_charge 
C1          C  0.83357743  0.82678574  0.76179183     0.42040
N2          N  0.80789212  0.75072375  0.76329695     0.00930
C3          C  0.94555886  0.65224195  0.85671837    -0.06940
H4          H  0.02317609  0.76799904  0.70805904     0.06430
C5          C  0.88886668  0.66448213  0.58317215    -0.07290
Co6        Co  0.87569805  0.72813516  0.82153200     0.74180
N7          N  0.95761619  0.74410799  0.75217093    -0.26470
Co8        Co  0.91827956  0.66945982  0.74299851     0.74070
C9          C  0.94253599  0.68965769  0.58270477     0.42150
N10         N  0.78191800  0.66064479  0.64171273     0.00550
N11         N  0.91760317  0.67582497  0.66210069     0.00660
N12         N  0.91105479  0.68703171  0.90385883    -0.47320
H13         H  0.90295771  0.84483873  0.80856396     0.06410
N14         N  0.94152974  0.76668707  0.78258982     0.00940
N15         N  0.87648759  0.59477835  0.73333608     0.00680
C16         C  0.85404678  0.51897125  0.73110027     0.42290
N17         N  0.76606155  0.68210668  0.67418809    -0.25930
C18         C  0.80289941  0.68845500  0.91175482    -0.06850
N19         N  0.79593231  0.78301263  0.74778611    -0.46670
N20         N  0.88874743  0.56281317  0.74908965    -0.47260
C21         C  0.75121299  0.67260666  0.91730678     0.42060
N22         N  0.90032466  0.68515949  0.85379122     0.00930
N23         N  0.72827632  0.60080122  0.74510351    -0.25950
N24         N  0.85018816  0.77063930  0.78818000    -0.26440
N25         N  0.74362571  0.57862910  0.71266397     0.00570
H26         H  0.66410392  0.57498741  0.79297039     0.06460
H27         H  0.78629274  0.50112929  0.68053822     0.06490
N28         N  0.91974292  0.66482208  0.82482210    -0.26490
N29         N  0.87680000  0.65701990  0.63420927    -0.26100
N30         N  0.76798714  0.67126679  0.83578067     0.00930
C31         C  0.01192927  0.82256831  0.75821796     0.42330
C32         C  0.74756106  0.70485292  0.64690787    -0.07350
N33         N  0.83572027  0.57486767  0.70539500    -0.26100
H34         H  0.86343498  0.65139621  0.55054695     0.06480
N35         N  0.97293305  0.81369081  0.78744088    -0.47320
H36         H  0.73268912  0.72535165  0.66481156     0.06470
C37         C  0.67662243  0.52172904  0.74262735     0.42170
C38         C  0.86931395  0.81887812  0.78924699    -0.06850
Co39       Co  0.76663887  0.67596567  0.75469694     0.73820
N40         N  0.77379745  0.66672390  0.59211887    -0.47040
C41         C  0.93979192  0.66733134  0.90980750     0.42430
N42         N  0.73183683  0.66183611  0.86832337    -0.47030
Co43       Co  0.80904936  0.61719238  0.67193298     0.73890
C44         C  0.81855294  0.52684431  0.70214729    -0.07360
C45         C  0.00144373  0.77644566  0.73396886    -0.06920
N46         N  0.81019678  0.68950730  0.86029853    -0.26450
N47         N  0.95719832  0.69546800  0.63302986    -0.47210
H48         H  0.97000346  0.63983028  0.84363035     0.06440
C49         C  0.68602555  0.56763314  0.76604154    -0.07330
Cl50       Cl  0.84229572  0.67247669  0.74746959    -0.50340
C51         C  0.75181088  0.69422086  0.59209185     0.42190
H52         H  0.83157625  0.70391498  0.94103886     0.06410
N53         N  0.71324440  0.53123723  0.70941666    -0.47050
C54         C  0.94152927  0.25744759  0.58722881     0.42040
N55         N  0.92226900  0.24345914  0.66826243     0.00930
C56         C  0.78580014  0.01423252  0.77417654    -0.06940
H57         H  0.69131096  0.04740323  0.64558396     0.06430
C58         C  0.71980613  0.19923477  0.77453628    -0.07290
Co59       Co  0.87301738  0.13674546  0.68810986     0.74180
N60         N  0.76593220  0.09372753  0.67077598    -0.26470
Co61       Co  0.76459706  0.09781875  0.75256559     0.74070
C62         C  0.67922639  0.16442401  0.74211120     0.42150
N63         N  0.84458617  0.27202765  0.77542237     0.00550
N64         N  0.73077842  0.13983851  0.75109872     0.00660
N65         N  0.85797774  0.04211976  0.73369298    -0.47320
H66         H  0.90559047  0.17580580  0.56799482     0.06410
N67         N  0.80776272  0.10894806  0.64660228     0.00940
N68         N  0.76569941  0.10151997  0.83415451     0.00680
C69         C  0.75371200  0.08067628  0.91521838     0.42290
N70         N  0.88526068  0.28741801  0.74872913    -0.25930
C71         C  0.96789886  0.14712771  0.73603293    -0.06850
N72         N  0.94699461  0.27894209  0.63476322    -0.47030
N73         N  0.74660789  0.06368825  0.86540130    -0.47260
C74         C  0.00916621  0.18446248  0.76564420     0.42060
N75         N  0.84242589  0.07364930  0.73133893     0.00930
N76         N  0.92301593  0.25325477  0.83051605    -0.25950
N77         N  0.90310143  0.20016165  0.64582576    -0.26440
N78         N  0.88273774  0.23687361  0.85810687     0.00570
H79         H  0.99945985  0.29167732  0.85096245     0.06460
H80         H  0.78953675  0.16157180  0.94164025     0.06490
N81         N  0.80031312  0.05815683  0.75460103    -0.26490
N82         N  0.74991550  0.18121001  0.77773722    -0.26100
N83         N  0.95761405  0.20822996  0.75279995     0.00930
C84         C  0.75375092  0.06963506  0.58685051     0.42330
C85         C  0.89693820  0.33017385  0.72735841    -0.07350
N86         N  0.78535905  0.14328044  0.85998668    -0.26100
H87         H  0.72495416  0.23191654  0.79393256     0.06480
N88         N  0.80202760  0.09454965  0.59708350    -0.47320
H89         H  0.92936582  0.35260840  0.70501889     0.06470
C90         C  0.94108135  0.26923654  0.91414496     0.42170
C91         C  0.91306841  0.20525657  0.59491092    -0.06850
Co92       Co  0.92277893  0.24904786  0.74977351     0.73820
N93         N  0.82718204  0.30215790  0.77329313    -0.47040
C94         C  0.82457563  0.00353678  0.76071210     0.42430
N95         N  0.00099010  0.22182930  0.77360844    -0.47030
Co96       Co  0.81535176  0.20864464  0.81902311     0.73890
C97         C  0.77916107  0.13403739  0.91151970    -0.07360
C98         C  0.72955313  0.06864251  0.63606822    -0.06920
N99         N  0.93784119  0.16498120  0.73011847    -0.26450
N100        N  0.68777611  0.12782067  0.73008676    -0.47210
H101        H  0.75113203  0.99273538  0.79270008     0.06440
C102        C  0.96166208  0.27423113  0.86259235    -0.07330
Cl103      Cl  0.84387055  0.17312934  0.75227396    -0.50340
C104        C  0.85781591  0.33929900  0.74303616     0.42190
H105        H  0.96262280  0.11338466  0.71937083     0.06410
N106        N  0.89192565  0.24560717  0.90905452    -0.47050
C107        C  0.07636585  0.75523475  0.40712779     0.42040
N108        N  0.10138158  0.76210440  0.32786697     0.00930
C109        C  0.33495319  0.89701491  0.22948592    -0.06940
H110        H  0.28602506  0.99583650  0.34734325     0.06430
C111        C  0.14701337  0.96031562  0.22389982    -0.07290
Co112      Co  0.21027570  0.81291067  0.31778678     0.74180
N113        N  0.25128097  0.91963618  0.32760595    -0.26470
Co114      Co  0.25073478  0.91878944  0.24672398     0.74070
C115        C  0.18227741  0.00172196  0.25533232     0.42150
N116        N  0.07595863  0.83427353  0.21840652     0.00550
N117        N  0.20806745  0.95146316  0.24566901     0.00660
N118        N  0.30849507  0.82850682  0.27654990    -0.47320
H119        H  0.15536510  0.79299863  0.43952572     0.06410
N120        N  0.23585637  0.88013444  0.35574412     0.00940
N121        N  0.24983425  0.91874880  0.16498116     0.00680
C122        C  0.26844396  0.94334396  0.08580416     0.42290
N123        N  0.06014161  0.79300383  0.24307483    -0.25930
C124        C  0.20418443  0.71731143  0.27793765    -0.06850
N125        N  0.06170443  0.74536836  0.35675950    -0.47030
N126        N  0.28690438  0.94719002  0.13456240    -0.47260
C127        C  0.16994111  0.67512557  0.24670193     0.42060
N128        N  0.27619709  0.84349221  0.27652837     0.00930
N129        N  0.10169408  0.75901870  0.16464931    -0.25950
N130        N  0.14215244  0.78269244  0.35588288    -0.26440
N131        N  0.11862867  0.80014077  0.13913859     0.00570
H132        H  0.05566203  0.68422294  0.14071856     0.06460
H133        H  0.18794583  0.90422123  0.06043129     0.06490
N134        N  0.29095820  0.88350156  0.24927492    -0.26490
N135        N  0.16601036  0.93099595  0.22021886    -0.26100
N136        N  0.14466991  0.72655373  0.25036982     0.00930
C137        C  0.26450506  0.93889351  0.41133404     0.42330
C138        C  0.01532990  0.77863376  0.26106664    -0.07350
N139        N  0.20778889  0.89836939  0.13955962    -0.26100
H140        H  0.11404539  0.95457104  0.20468228     0.06480
N141        N  0.24330175  0.89005846  0.40672154    -0.47320
H142        H  0.99252666  0.74513128  0.28122709     0.06470
C143        C  0.08123337  0.74479202  0.07988032     0.42170
C144        C  0.12999777  0.77947498  0.40686718    -0.06850
Co145      Co  0.10153323  0.75913896  0.24642268     0.73820
N146        N  0.04398994  0.84954677  0.21858824    -0.47040
C147        C  0.34634956  0.86049645  0.24755640     0.42430
N148        N  0.13341373  0.68301866  0.23192374    -0.47030
Co149      Co  0.14180136  0.86594435  0.17878705     0.73890
C150        C  0.21587534  0.91132644  0.08930557    -0.07360
C151        C  0.26960968  0.95844860  0.35938053    -0.06920
N152        N  0.18553147  0.74700627  0.27806121    -0.26450
N153        N  0.21978615  0.99437851  0.26612492    -0.47210
H154        H  0.35684550  0.92932099  0.20701729     0.06440
C155        C  0.07790676  0.72196325  0.13037671    -0.07330
Cl156      Cl  0.17619817  0.83914002  0.24730082    -0.50340
C157        C  0.00514924  0.81681973  0.24573533     0.42190
H158        H  0.23625234  0.72347092  0.29955307     0.06410
N159        N  0.10734066  0.79310976  0.08880731    -0.47050
C160        C  0.49958349  0.33762898  0.75326507     0.42040
N161        N  0.42331412  0.28610727  0.75806775     0.00930
C162        C  0.32195162  0.05412058  0.85950302    -0.06940
H163        H  0.43635269  0.08765789  0.70180306     0.06430
C164        C  0.30878771  0.10743500  0.59263462    -0.07290
Co165      Co  0.40569050  0.20012644  0.82200739     0.74180
N166        N  0.41482315  0.13093378  0.74839432    -0.26470
Co167      Co  0.33877977  0.09469482  0.74769041     0.74070
C168        C  0.32772491  0.07425563  0.58493364     0.42150
N169        N  0.31832439  0.21337331  0.64935394     0.00550
N170        N  0.33557589  0.09640226  0.66608173     0.00660
N171        N  0.36380096  0.12259662  0.90880377    -0.47320
H172        H  0.52017264  0.29017056  0.80234494     0.06410
N173        N  0.43987242  0.17054351  0.77746186     0.00940
N174        N  0.26304589  0.06135213  0.74808029     0.00680
C175        C  0.18673946  0.01031221  0.75545943     0.42290
N176        N  0.34337513  0.25421647  0.67632908    -0.25930
C177        C  0.36933187  0.23823840  0.91572707    -0.06850
N178        N  0.45475589  0.32939918  0.73968533    -0.47030
N179        N  0.23192017  0.01796371  0.76632632    -0.47260
C180        C  0.34474183  0.26671775  0.91958484     0.42060
N181        N  0.36497681  0.13259316  0.85824457     0.00930
N182        N  0.27170821  0.21771610  0.75870046    -0.25950
N183        N  0.44492078  0.26607542  0.78382960    -0.26440
N184        N  0.24593847  0.17702292  0.73170024     0.00570
H185        H  0.25135033  0.26162022  0.80573595     0.06460
H186        H  0.16583575  0.05873331  0.70827023     0.06490
N187        N  0.34085296  0.09303419  0.82888766    -0.26490
N188        N  0.31376316  0.11777130  0.64376290    -0.26100
N189        N  0.34985885  0.25170493  0.83899003     0.00930
C190        C  0.49416182  0.15690794  0.74468003     0.42330
C191        C  0.35482651  0.29150072  0.64415856    -0.07350
N192        N  0.24100274  0.08198972  0.72472482    -0.26100
H193        H  0.28852096  0.11692453  0.56577345     0.06480
N194        N  0.48731145  0.18681725  0.77684246    -0.47320
H195        H  0.37125822  0.32922565  0.65608584     0.06470
C196        C  0.19261135  0.19041071  0.76704733     0.42170
C197        C  0.49315511  0.29606562  0.78301147    -0.06850
Co198      Co  0.34748446  0.25339876  0.75792035     0.73820
N199        N  0.31130227  0.22053385  0.59999574    -0.47040
C200        C  0.33740407  0.07360537  0.91219956     0.42430
N201        N  0.33335143  0.27319968  0.87078190    -0.47030
Co202      Co  0.27959623  0.14755091  0.68686022     0.73890
C203        C  0.19279242  0.05242744  0.72701285    -0.07360
C204        C  0.44615293  0.11943609  0.72595579    -0.06920
N205        N  0.37107632  0.23092801  0.86402330    -0.26450
N206        N  0.34347345  0.06900240  0.63246348    -0.47210
H207        H  0.30121599  0.01673433  0.84618732     0.06440
C208        C  0.24103590  0.22944287  0.78210827    -0.07330
Cl209      Cl  0.34302506  0.17401563  0.75355856    -0.50340
C210        C  0.33361518  0.26886572  0.59334135     0.42190
H211        H  0.38503055  0.22690279  0.94627801     0.06410
N212        N  0.19846031  0.15997733  0.73475941    -0.47050
C213        C  0.06901618  0.32377650  0.40886525     0.42040
N214        N  0.13059338  0.35312486  0.35722098     0.00930
C215        C  0.10846524  0.31015360  0.08865743    -0.06940
H216        H  0.06111977  0.16128021  0.20122537     0.06430
C217        C  0.23056564  0.23369040  0.26801558    -0.07290
Co218      Co  0.09530105  0.33290314  0.24570977     0.74180
N219        N  0.08251811  0.23625143  0.21655188    -0.26470
Co220      Co  0.14859547  0.27649864  0.17947146     0.74070
C221        C  0.19222169  0.18636490  0.24957232     0.42150
N222        N  0.24981752  0.33758762  0.33432657     0.00550
N223        N  0.17776278  0.24060968  0.22044287     0.00660
N224        N  0.07307000  0.34601948  0.13283501    -0.47320
H225        H  0.01516341  0.29241222  0.33912311     0.06410
N226        N  0.06121863  0.25735907  0.24098103     0.00940
N227        N  0.21541709  0.31757287  0.14368586     0.00680
C228        C  0.27233671  0.33396254  0.08799689     0.42290
N229        N  0.22910081  0.35778089  0.36163946    -0.25930
C230        C  0.11966399  0.44016501  0.23252351    -0.06850
N231        N  0.11844921  0.35023218  0.40736998    -0.47030
N232        N  0.22363579  0.31245802  0.09406986    -0.47260
C233        C  0.15634471  0.48715376  0.25427378     0.42060
N234        N  0.09897099  0.33464602  0.16449804     0.00930
N235        N  0.26598069  0.43579618  0.28583795    -0.25950
N236        N  0.09198765  0.33056337  0.32628932    -0.26440
N237        N  0.28632082  0.41526241  0.25845742     0.00570
H238        H  0.28767199  0.50992354  0.30431775     0.06460
H239        H  0.33117490  0.36702094  0.15295363     0.06490
N240        N  0.11906521  0.31257772  0.13965064    -0.26490
N241        N  0.21822846  0.26499446  0.24828083    -0.26100
N242        N  0.17064765  0.43203140  0.28207148     0.00930
C243        C  0.01181446  0.18126364  0.24847905     0.42330
C244        C  0.23582023  0.35301361  0.41283797    -0.07350
N245        N  0.25591167  0.34077579  0.17165513    -0.26100
H246        H  0.26274367  0.24300922  0.29122137     0.06480
N247        N  0.01803847  0.22562889  0.25976244    -0.47320
H248        H  0.22470579  0.36784711  0.44473835     0.06470
C249        C  0.33664551  0.49167191  0.25301478     0.42170
C250        C  0.05182575  0.31087012  0.35500904    -0.06850
Co251      Co  0.19936660  0.39523164  0.32307721     0.73820
N252        N  0.27066400  0.31922213  0.36403415    -0.47040
C253        C  0.07801339  0.33249550  0.08396784     0.42430
N254        N  0.18679560  0.47931354  0.28436441    -0.47030
Co255      Co  0.25353687  0.34011567  0.25324089     0.73890
C256        C  0.29392333  0.35292987  0.13987694    -0.07360
C257        C  0.05395449  0.18806928  0.21911236    -0.06920
N258        N  0.13142922  0.40833272  0.25206511    -0.26450
N259        N  0.16113790  0.19327714  0.21971348    -0.47210
H260        H  0.11590643  0.28981575  0.05950872     0.06440
C261        C  0.29494886  0.48396081  0.28463272    -0.07330
Cl262      Cl  0.17424189  0.33628392  0.25035624    -0.50340
C263        C  0.26378732  0.32733212  0.41422366     0.42190
H264        H  0.08856448  0.43120194  0.20756898     0.06410
N265        N  0.32873769  0.44731493  0.23853024    -0.47050
C266        C  0.82329713  0.81665255  0.23698782     0.42040
N267        N  0.74809710  0.79679437  0.23181380     0.00930
C268        C  0.66572668  0.94815726  0.13842615    -0.06940
H269        H  0.77766001  0.01685480  0.29393549     0.06430
C270        C  0.66217428  0.88134758  0.40867721    -0.07290
Co271      Co  0.73434509  0.87041834  0.17431761     0.74180
N272        N  0.75194955  0.95118705  0.24784690    -0.26470
Co273      Co  0.67648230  0.91616191  0.25065018     0.74070
C274        C  0.68950002  0.93439169  0.41275030     0.42150
N275        N  0.65688304  0.77625061  0.34813889     0.00550
N276        N  0.67845294  0.91320446  0.33182264     0.00660
N277        N  0.70208909  0.91540211  0.09057241    -0.47320
H278        H  0.84720753  0.88791871  0.19307920     0.06410
N279        N  0.77439334  0.93383448  0.21887781     0.00940
N280        N  0.60070532  0.87755832  0.25387756     0.00680
C281        C  0.52500131  0.85506940  0.24590167     0.42290
N282        N  0.67645190  0.75797645  0.31631013    -0.25930
C283        C  0.69326018  0.79907624  0.08036157    -0.06850
N284        N  0.77776061  0.78176113  0.24911356    -0.47030
N285        N  0.57034890  0.89093339  0.23457588    -0.47260
C286        C  0.67103666  0.74645244  0.07285976     0.42060
N287        N  0.69727639  0.90163531  0.13991771     0.00930
N288        N  0.59734071  0.72498315  0.24098494    -0.25950
N289        N  0.77137876  0.83923128  0.20888627    -0.26440
N290        N  0.57593951  0.74178970  0.27226053     0.00570
H291        H  0.57058010  0.66029066  0.19345745     0.06460
H292        H  0.50206126  0.78621927  0.29368325     0.06490
N293        N  0.67628238  0.92041492  0.16899193    -0.26490
N294        N  0.65686331  0.87165360  0.35691426    -0.26100
N295        N  0.67020281  0.76362587  0.15461854     0.00930
C296        C  0.83179199  0.00043999  0.25118599     0.42330
C297        C  0.69764661  0.73822734  0.34410660    -0.07350
N298        N  0.57806432  0.83595062  0.27895596    -0.26100
H299        H  0.64655859  0.85484613  0.43932851     0.06480
N300        N  0.82232463  0.96270052  0.21903967    -0.47320
H301        H  0.71434845  0.71963122  0.32631686     0.06470
C302        C  0.51710701  0.67485701  0.24122637     0.42170
C303        C  0.81917296  0.85482932  0.21030634    -0.06850
Co304      Co  0.67262621  0.75994159  0.23569760     0.73820
N305        N  0.66417489  0.77006600  0.39805188    -0.47040
C306        C  0.68216565  0.94409396  0.08602285     0.42430
N307        N  0.65761358  0.72710950  0.12099242    -0.47030
Co308      Co  0.61631458  0.80604137  0.31554606     0.73890
C309        C  0.52995854  0.81902284  0.27595254    -0.07360
C310        C  0.78523960  0.99324996  0.26984846    -0.06920
N311        N  0.69305000  0.80619026  0.13186394    -0.26450
N312        N  0.69785264  0.95150395  0.36369969    -0.47210
H313        H  0.65277941  0.97200183  0.15211950     0.06440
C314        C  0.56330710  0.68296190  0.21943761    -0.07330
Cl315      Cl  0.67472339  0.83811259  0.24406819    -0.50340
C316        C  0.69036617  0.74660759  0.39880743     0.42190
H317        H  0.71368522  0.82744497  0.05260657     0.06410
N318        N  0.52815344  0.71269915  0.27393181    -0.47050
C319        C  0.92461047  0.13120751  0.22613120    -0.09570
C320        C  0.96556039  0.13560173  0.25232038     0.06630
C321        C  0.96259759  0.09525806  0.27798514    -0.03340
C322        C  0.91858585  0.05111128  0.27735871    -0.07790
C323        C  0.87765968  0.04679838  0.25104204     0.05740
C324        C  0.88096696  0.08700396  0.22474472    -0.02810
Br325      Br  0.82815508  0.08238207  0.18311208    -0.02510
H326        H  0.92712061  0.16176176  0.20508596     0.09650
H327        H  0.91622776  0.02022470  0.29756249     0.07670
Br328      Br  0.01721599  0.09940629  0.31555164    -0.02930
C329        C  0.38337775  0.58149518  0.26073991    -0.09570
C330        C  0.38180758  0.53855638  0.24377948     0.06630
C331        C  0.42404844  0.54187580  0.22102217    -0.03340
C332        C  0.46682262  0.58692313  0.21859500    -0.07790
C333        C  0.46918340  0.62936679  0.23881991     0.05740
C334        C  0.42621354  0.62631612  0.25895649    -0.02810
Br335      Br  0.42221599  0.68081397  0.28589044    -0.02510
H336        H  0.35133354  0.58052537  0.27678921     0.09650
H337        H  0.49890051  0.58804838  0.20242106     0.07670
Br338      Br  0.42778283  0.48709750  0.19416885    -0.02930
C339        C  0.33332982  0.28286893  0.49881514    -0.09570
C340        C  0.32062472  0.28981579  0.54916294     0.06630
C341        C  0.28996065  0.30986692  0.55519219    -0.03340
C342        C  0.27265524  0.32255499  0.51095585    -0.07790
C343        C  0.28480014  0.31514263  0.46007818     0.05740
C344        C  0.31624393  0.29543462  0.45449246    -0.02810
Br345      Br  0.33777678  0.28343689  0.38855234    -0.02510
H346        H  0.35611148  0.26656525  0.49389369     0.09650
H347        H  0.24840315  0.33698543  0.51662484     0.07670
Br348      Br  0.26668512  0.31639303  0.62238074    -0.02930
C349        C  0.35901361  0.32824000  0.98847140    -0.09570
C350        C  0.32898150  0.28198089  0.96636004     0.06630
C351        C  0.28129696  0.25342995  0.98440532    -0.03340
C352        C  0.26398729  0.27120108  0.02396498    -0.07790
C353        C  0.29351191  0.31769463  0.04623858     0.05740
C354        C  0.34171028  0.34628118  0.02837037    -0.02810
Br355      Br  0.38396471  0.41119070  0.05378983    -0.02510
H356        H  0.39543595  0.35094930  0.97350876     0.09650
H357        H  0.22700595  0.24827635  0.03725234     0.07670
Br358      Br  0.23804638  0.19039529  0.95490190    -0.02930
C359        C  0.31800836  0.97363190  0.00548929    -0.09570
C360        C  0.29213193  0.98079998  0.04558285     0.06630
C361        C  0.28577574  0.02167953  0.04423109    -0.03340
C362        C  0.30358446  0.05356171  0.00200939    -0.07790
C363        C  0.32707605  0.04485181  0.96036530     0.05740
C364        C  0.33544124  0.00521103  0.96304988    -0.02810
Br365      Br  0.37115494  0.99294274  0.91026155    -0.02510
H366        H  0.32347432  0.94259915  0.00642395     0.09650
H367        H  0.29684357  0.08377153  0.00042443     0.07670
Br368      Br  0.25095320  0.03409752  0.09788286    -0.02930
C369        C  0.31880545  0.97716288  0.48877037    -0.09570
C370        C  0.27703613  0.96765974  0.46000728     0.06630
C371        C  0.25201838  0.99231030  0.47302028    -0.03340
C372        C  0.26897395  0.02627237  0.51385929    -0.07790
C373        C  0.31157699  0.03729175  0.54218029     0.05740
C374        C  0.33633172  0.01185563  0.52965308    -0.02810
Br375      Br  0.39583077  0.02539595  0.56421976    -0.02510
H376        H  0.33902784  0.95920574  0.47789326     0.09650
H377        H  0.24820837  0.04390223  0.52320305     0.07670
Br378      Br  0.19455112  0.98123460  0.43553486    -0.02930
C379        C  0.22093645  0.08623189  0.22550457    -0.09570
C380        C  0.18628381  0.04962195  0.25709469     0.06630
C381        C  0.15509148  0.05890393  0.28802148    -0.03340
C382        C  0.15753640  0.10397352  0.28531268    -0.07790
C383        C  0.19154863  0.14017922  0.25287054     0.05740
C384        C  0.22368160  0.13136484  0.22306484    -0.02810
Br385      Br  0.26999234  0.17883003  0.17650880    -0.02510
H386        H  0.24523258  0.07933224  0.20185800     0.09650
H387        H  0.13316138  0.11093019  0.30881896     0.07670
Br388      Br  0.11088503  0.01231334  0.33649435    -0.02930
C389        C  0.20413989  0.57616361  0.24170509    -0.09570
C390        C  0.15873684  0.53459508  0.24995842     0.06630
C391        C  0.11713619  0.53960050  0.25577911    -0.03340
C392        C  0.12147850  0.58550105  0.25263666    -0.07790
C393        C  0.16691326  0.62716921  0.24491293     0.05740
C394        C  0.20852159  0.62216971  0.23884768    -0.02810
Br395      Br  0.27168943  0.67620691  0.22388788    -0.02510
H396        H  0.23635610  0.57277362  0.23704658     0.09650
H397        H  0.08937112  0.58884189  0.25846611     0.07670
Br398      Br  0.05448104  0.48638288  0.27389400    -0.02930
C399        C  0.48045375  0.89987115  0.25912337    -0.09570
C400        C  0.48043789  0.85829813  0.24028371     0.06630
C401        C  0.43691283  0.81911689  0.22023681    -0.03340
C402        C  0.39350169  0.82055772  0.22271432    -0.07790
C403        C  0.39313525  0.86139623  0.24336812     0.05740
C404        C  0.43726464  0.90176697  0.26075178    -0.02810
Br405      Br  0.44020827  0.95860563  0.29138688    -0.02510
H406        H  0.51379998  0.93021070  0.27464776     0.09650
H407        H  0.35999311  0.78991629  0.20795900     0.07670
Br408      Br  0.43573850  0.76467818  0.18572182    -0.02930
C409        C  0.91465219  0.77259377  0.25091841    -0.09570
C410        C  0.95870250  0.81694265  0.25007873     0.06630
C411        C  0.95726004  0.86053929  0.25024353    -0.03340
C412        C  0.91260462  0.85916948  0.24822879    -0.07790
C413        C  0.86858311  0.81496648  0.24575567     0.05740
C414        C  0.86973707  0.77115882  0.24847017    -0.02810
Br415      Br  0.81229299  0.70819931  0.24422292    -0.02510
H416        H  0.91500908  0.73870013  0.25087462     0.09650
H417        H  0.91249341  0.89318263  0.24784315     0.07670
Br418      Br  0.01452838  0.92340055  0.25391531    -0.02930
C419        C  0.00767983  0.26767542  0.03528101    -0.09570
C420        C  0.03948206  0.31749945  0.04399637     0.06630
C421        C  0.03482933  0.35141410  0.01334960    -0.03340
C422        C  0.00027340  0.33505041  0.97261668    -0.07790
C423        C  0.96945650  0.28514663  0.96302990     0.05740
C424        C  0.97281958  0.25137516  0.99514432    -0.02810
Br425      Br  0.93390551  0.18279860  0.98235334    -0.02510
H426        H  0.01081801  0.24128632  0.05896067     0.09650
H427        H  0.99852888  0.36125459  0.94726776     0.07670
Br428      Br  0.07704336  0.41993132  0.02356800    -0.02930
C429        C  0.98764023  0.27599447  0.44905487    -0.09570
C430        C  0.03716290  0.31118027  0.45558855     0.06630
C431        C  0.05346485  0.33311749  0.50558750    -0.03340
C432        C  0.02113723  0.31716184  0.54794012    -0.07790
C433        C  0.97239637  0.28018700  0.54122707     0.05740
C434        C  0.95535899  0.26120937  0.49067773    -0.02810
Br435      Br  0.88790341  0.21607881  0.47510416    -0.02510
H436        H  0.97328980  0.25895661  0.41138820     0.09650
H437        H  0.03459819  0.33262752  0.58652790     0.07670
Br438      Br  0.11852390  0.38524747  0.51890466    -0.02930
C439        C  0.72979713  0.02874344  0.05424151    -0.09570
C440        C  0.69636894  0.97972100  0.04360322     0.06630
C441        C  0.68191812  0.96463726  0.99160470    -0.03340
C442        C  0.70026041  0.99847787  0.95131507    -0.07790
C443        C  0.73449154  0.04782943  0.96126205     0.05740
C444        C  0.74964970  0.06259996  0.01383612    -0.02810
Br445      Br  0.80055666  0.12618015  0.03411669    -0.02510
H446        H  0.74249637  0.04029096  0.09405681     0.09650
H447        H  0.68801779  0.98563620  0.91168340     0.07670
Br448      Br  0.63730532  0.89794483  0.97382282    -0.02930
C449        C  0.75062973  0.99975251  0.53924697    -0.09570
C450        C  0.73330600  0.03258301  0.54458601     0.06630
C451        C  0.69942682  0.03109769  0.50782843    -0.03340
C452        C  0.68469838  0.99814587  0.46547122    -0.07790
C453        C  0.70239759  0.96560566  0.45999926     0.05740
C454        C  0.73518796  0.96621138  0.49762703    -0.02810
Br455      Br  0.76287757  0.92470403  0.49145406    -0.02510
H456        H  0.77690559  0.00069744  0.56720898     0.09650
H457        H  0.65973717  0.99823562  0.43641937     0.07670
Br458      Br  0.67473322  0.07519566  0.51244706    -0.02930
C459        C  0.13598443  0.21384890  0.72915238    -0.09570
C460        C  0.14719880  0.19172018  0.76974375     0.06630
C461        C  0.11341501  0.16823820  0.80978833    -0.03340
C462        C  0.06870141  0.16715586  0.80877162    -0.07790
C463        C  0.05743047  0.18909129  0.76798670     0.05740
C464        C  0.09125855  0.21251205  0.72789734    -0.02810
Br465      Br  0.07687831  0.24082611  0.66937565    -0.02510
H466        H  0.16163860  0.23119317  0.69773816     0.09650
H467        H  0.04237607  0.14846076  0.83925470     0.07670
Br468      Br  0.12622002  0.13587325  0.86521024    -0.02930
C469        C  0.56452717  0.16254941  0.69563370    -0.09570
C470        C  0.53983468  0.15547934  0.74311320     0.06630
C471        C  0.56049108  0.14970515  0.78946155    -0.03340
C472        C  0.60565979  0.15201205  0.78801314    -0.07790
C473        C  0.63075785  0.15985785  0.74085376     0.05740
C474        C  0.61006537  0.16510462  0.69433661    -0.02810
Br475      Br  0.64429947  0.17897314  0.62933537    -0.02510
H476        H  0.54911607  0.16757389  0.65994341     0.09650
H477        H  0.62137549  0.14779155  0.82392612     0.07670
Br478      Br  0.52790728  0.13722138  0.85553558    -0.02930
C479        C  0.98611121  0.72802443  0.97900271    -0.09570
C480        C  0.97564833  0.68431133  0.95378327     0.06630
C481        C  0.99913271  0.65931952  0.97174588    -0.03340
C482        C  0.03335924  0.67914465  0.01318689    -0.07790
C483        C  0.04455279  0.72372264  0.03703780     0.05740
C484        C  0.01938412  0.74747337  0.02016744    -0.02810
Br485      Br  0.02506614  0.80489596  0.05323090    -0.02510
H486        H  0.96821014  0.74781920  0.96677889     0.09650
H487        H  0.05135800  0.65982860  0.02668188     0.07670
Br488      Br  0.98377891  0.59720387  0.94327362    -0.02930
C489        C  0.05397799  0.72333768  0.49775450    -0.09570
C490        C  0.04236651  0.73985998  0.45227168     0.06630
C491        C  0.99718398  0.73896242  0.44992441    -0.03340
C492        C  0.96477319  0.72133465  0.49203084    -0.07790
C493        C  0.97645611  0.70497000  0.53755224     0.05740
C494        C  0.02159355  0.70572038  0.53989536    -0.02810
Br495      Br  0.04009042  0.68000543  0.59769757    -0.02510
H496        H  0.08791148  0.72282999  0.50003740     0.09650
H497        H  0.93081072  0.72179908  0.48973736     0.07670
Br498      Br  0.97883485  0.76483810  0.39237790    -0.02930
C499        C  0.79337727  0.87293428  0.78759449    -0.09570
C500        C  0.83164058  0.87176527  0.76179212     0.06630
C501        C  0.86811740  0.91378750  0.73832461    -0.03340
C502        C  0.86489917  0.95597136  0.73935524    -0.07790
C503        C  0.82615705  0.95767879  0.76458204     0.05740
C504        C  0.79075551  0.91549657  0.79044184    -0.02810
Br505      Br  0.73957070  0.91192829  0.83351291    -0.02510
H506        H  0.76605960  0.84073176  0.80711640     0.09650
H507        H  0.89300943  0.98755831  0.71975764     0.07670
Br508      Br  0.92184950  0.91475357  0.70250694    -0.02930
C509        C  0.81348786  0.42890954  0.72358436    -0.09570
C510        C  0.85585721  0.47331278  0.73523981     0.06630
C511        C  0.89898492  0.47277168  0.74933686    -0.03340
C512        C  0.89902138  0.42881259  0.75006572    -0.07790
C513        C  0.85666578  0.38482780  0.73858541     0.05740
C514        C  0.81349678  0.38494191  0.72562906    -0.02810
Br515      Br  0.75417717  0.32623311  0.70814602    -0.02510
H516        H  0.77993255  0.42810771  0.71309163     0.09650
H517        H  0.93219194  0.42889052  0.76091921     0.07670
Br518      Br  0.95965738  0.52975148  0.76785503    -0.02930
C519        C  0.05386419  0.91209244  0.76408243    -0.09570
C520        C  0.05739460  0.87002415  0.75752882     0.06630
C521        C  0.10409557  0.87467603  0.75367957    -0.03340
C522        C  0.14550772  0.92075051  0.75397448    -0.07790
C523        C  0.14181774  0.96276260  0.75883804     0.05740
C524        C  0.09543225  0.95815056  0.76520791    -0.02810
Br525      Br  0.08626474  0.01248393  0.77976406    -0.02510
H526        H  0.01845734  0.90915288  0.76878415     0.09650
H527        H  0.18096644  0.92367891  0.75015169     0.07670
Br528      Br  0.11549505  0.82074186  0.75252816    -0.02930
C529        C  0.60157023  0.45595068  0.70137601    -0.09570
C530        C  0.63159585  0.47474947  0.74586961     0.06630
C531        C  0.61820002  0.44839388  0.79252414    -0.03340
C532        C  0.57530733  0.40344228  0.79395647    -0.07790
C533        C  0.54473626  0.38481419  0.74968523     0.05740
C534        C  0.55799148  0.41154674  0.70314113    -0.02810
Br535      Br  0.51919358  0.38806986  0.64040581    -0.02510
H536        H  0.61185392  0.47611704  0.66530308     0.09650
H537        H  0.56546917  0.38331465  0.83006285     0.07670
Br538      Br  0.65807802  0.47158557  0.85455767    -0.02930
C539        C  0.68194121  0.66211194  0.97309478    -0.09570
C540        C  0.73120257  0.69048581  0.95886992     0.06630
C541        C  0.75942401  0.73713708  0.98233214    -0.03340
C542        C  0.73880773  0.75318291  0.01973240    -0.07790
C543        C  0.68972094  0.72546311  0.03350006     0.05740
C544        C  0.66110944  0.67923749  0.01025358    -0.02810
Br545      Br  0.59339412  0.63955986  0.02637967    -0.02510
H546        H  0.65949486  0.62676439  0.95485354     0.09650
H547        H  0.76175267  0.78852600  0.03769300     0.07670
Br548      Br  0.82461196  0.78496625  0.96289439    -0.02930
C549        C  0.75133433  0.70058350  0.49573547    -0.09570
C550        C  0.73476435  0.70793107  0.54386175     0.06630
C551        C  0.70286681  0.72736147  0.54324265    -0.03340
C552        C  0.68985729  0.73957995  0.49563937    -0.07790
C553        C  0.70669337  0.73246156  0.44741070     0.05740
C554        C  0.73798206  0.71225650  0.44817401    -0.02810
Br555      Br  0.76643080  0.69935113  0.38836358    -0.02510
H556        H  0.77558161  0.68572230  0.49488167     0.09650
H557        H  0.66554010  0.75434979  0.49651697     0.07670
Br558      Br  0.67225422  0.73658082  0.60354673    -0.02930
loop_ 
_geom_bond_atom_site_label_1 
_geom_bond_atom_site_label_2 
_geom_bond_distance 
_geom_bond_site_symmetry_2 
_ccdc_geom_bond_type 
C1           N19   1.348       .  A
C1           C38   1.455       .  S
C1          C500   1.461       .  S
N2           N19   1.322       .  A
N2           N24   1.318       .  A
N2          Co39   2.072       .  S
C3           N28   1.349       .  A
C3           C41   1.476       .  S
C3           H48   1.081       .  S
H4           C45   1.080       .  S
C5           N29   1.350       .  A
C5            C9   1.473       .  S
C5           H34   1.082       .  S
Co6          N24   2.077       .  S
Co6          N14   2.080       .  S
Co6          N46   2.071       .  S
Co6          N22   2.058       .  S
Co6         Cl50   2.424       .  S
N7           C45   1.338   1_655  A
N7           N14   1.316       .  A
N7           Co8   2.067       .  S
Co8          N11   2.080       .  S
Co8          N28   2.100       .  S
Co8          N15   2.073       .  S
Co8         Cl50   2.457       .  S
C9           N47   1.345       .  A
C9          C493   1.490       .  S
N10          N17   1.318       .  A
N10          N40   1.327       .  A
N10         Co43   2.108       .  S
N11          N29   1.322       .  A
N11          N47   1.322       .  A
N12          C41   1.346       .  A
N12          N22   1.316       .  A
H13          C38   1.081       .  S
N14          N35   1.323       .  A
N15          N33   1.321       .  A
N15          N20   1.321       .  A
C16          N20   1.347       .  A
C16          C44   1.467       .  S
C16         C510   1.485       .  S
N17          C32   1.335       .  A
N17         Co39   2.069       .  S
C18          N46   1.334       .  A
C18          C21   1.460       .  S
C18          H52   1.081       .  S
C21          N42   1.355       .  A
C21         C540   1.484       .  S
N22          N28   1.316       .  A
N23          C49   1.340       .  A
N23          N25   1.323       .  A
N23         Co39   2.082       .  S
N24          C38   1.338       .  A
N25          N53   1.324       .  A
N25         Co43   2.094       .  S
H26          C49   1.082       .  S
H27          C44   1.081       .  S
N29         Co43   2.112       .  S
N30          N42   1.326       .  A
N30          N46   1.314       .  A
N30         Co39   2.081       .  S
C31          N35   1.350   1_455  A
C31          C45   1.462       .  S
C31         C520   1.477       .  S
C32          C51   1.459       .  S
C32          H36   1.075       .  S
N33          C44   1.342       .  A
N33         Co43   2.099       .  S
C37          N53   1.348       .  A
C37          C49   1.457       .  S
C37         C530   1.466       .  S
Co39        Cl50   2.459       .  S
N40          C51   1.362       .  A
C41         C480   1.486       .  S
Co43        Cl50   2.447       .  S
C51         C550   1.497       .  S
C54          N72   1.354       .  A
C54          C91   1.456       .  S
C54         C433   1.477       .  S
N55          N72   1.328       .  A
N55          N77   1.318       .  A
N55         Co92   2.088       .  S
C56          N81   1.337       .  A
C56          C94   1.468       .  S
C56         H101   1.076   1_545  S
H57          C98   1.082       .  S
C58          N82   1.337       .  A
C58          C62   1.455       .  S
C58          H87   1.082       .  S
Co59         N77   2.068       .  S
Co59         N67   2.077       .  S
Co59         N99   2.072       .  S
Co59         N75   2.074       .  S
Co59       Cl103   2.430       .  S
N60          C98   1.345       .  A
N60          N67   1.319       .  A
N60         Co61   2.094       .  S
Co61         N64   2.087       .  S
Co61         N81   2.071       .  S
Co61         N68   2.086       .  S
Co61       Cl103   2.457       .  S
C62         N100   1.352       .  A
C62         C473   1.467       .  S
N63          N70   1.321       .  A
N63          N93   1.323       .  A
N63         Co96   2.087       .  S
N64          N82   1.320       .  A
N64         N100   1.326       .  A
N65          C94   1.352       .  A
N65          N75   1.320       .  A
H66          C91   1.081       .  S
N67          N88   1.321       .  A
N68          N86   1.319       .  A
N68          N73   1.322       .  A
C69          N73   1.351       .  A
C69          C97   1.475       .  S
C69         C443   1.498       .  S
N70          C85   1.341       .  A
N70         Co92   2.084       .  S
C71          N99   1.337       .  A
C71          C74   1.454   1_655  S
C71         H105   1.082       .  S
C74          N95   1.349       .  A
C74         C463   1.460       .  S
N75          N81   1.315       .  A
N76         C102   1.334       .  A
N76          N78   1.321       .  A
N76         Co92   2.066       .  S
N77          C91   1.332       .  A
N78         N106   1.329       .  A
N78         Co96   2.100       .  S
H79         C102   1.082       .  S
H80          C97   1.078       .  S
N82         Co96   2.080       .  S
N83          N95   1.324   1_655  A
N83          N99   1.319       .  A
N83         Co92   2.081       .  S
C84          N88   1.348       .  A
C84          C98   1.467       .  S
C84         C450   1.476       .  S
C85         C104   1.461       .  S
C85          H89   1.082       .  S
N86          C97   1.346       .  A
N86         Co96   2.098       .  S
C90         N106   1.354       .  A
C90         C102   1.446       .  S
C90         C423   1.466       .  S
Co92       Cl103   2.461       .  S
N93         C104   1.347       .  A
C94         C503   1.487   1_545  S
Co96       Cl103   2.445       .  S
C104        C513   1.471       .  S
C107        N125   1.346       .  A
C107        C144   1.473       .  S
C107        C490   1.491       .  S
N108        N125   1.324       .  A
N108        N130   1.322       .  A
N108       Co145   2.082       .  S
C109        N134   1.338       .  A
C109        C147   1.456       .  S
C109        H154   1.082       .  S
H110        C151   1.082       .  S
C111        N135   1.340       .  A
C111        C115   1.459   1_565  S
C111        H140   1.081       .  S
Co112       N130   2.118       .  S
Co112       N120   2.094       .  S
Co112       N152   2.084       .  S
Co112       N128   2.103       .  S
Co112      Cl156   2.454       .  S
N113        C151   1.334       .  A
N113        N120   1.320       .  A
N113       Co114   2.066       .  S
Co114       N117   2.074       .  S
Co114       N134   2.075       .  S
Co114       N121   2.089       .  S
Co114      Cl156   2.453       .  S
C115        N153   1.347   1_545  A
C115        C380   1.463       .  S
N116        N123   1.317       .  A
N116        N146   1.322       .  A
N116       Co149   2.079       .  S
N117        N135   1.319       .  A
N117        N153   1.323       .  A
N118        C147   1.351       .  A
N118        N128   1.325       .  A
H119        C144   1.081       .  S
N120        N141   1.329       .  A
N121        N139   1.318       .  A
N121        N126   1.327       .  A
C122        N126   1.353       .  A
C122        C150   1.458       .  S
C122        C360   1.476       .  S
N123        C138   1.339       .  A
N123       Co145   2.071       .  S
C124        N152   1.340       .  A
C124        C127   1.460       .  S
C124        H158   1.081       .  S
C127        N148   1.353       .  A
C127        C393   1.479       .  S
N128        N134   1.323       .  A
N129        C155   1.345       .  A
N129        N131   1.320       .  A
N129       Co145   2.089       .  S
N130        C144   1.350       .  A
N131        N159   1.320       .  A
N131       Co149   2.087       .  S
H132        C155   1.082       .  S
H133        C150   1.082       .  S
N135       Co149   2.085       .  S
N136        N148   1.325       .  A
N136        N152   1.320       .  A
N136       Co145   2.087       .  S
C137        N141   1.353       .  A
C137        C151   1.447       .  S
C137        C370   1.466       .  S
C138        C157   1.459       .  S
C138        H142   1.081   1_455  S
N139        C150   1.339       .  A
N139       Co149   2.078       .  S
C143        N159   1.349       .  A
C143        C155   1.466       .  S
C143        C483   1.481       .  S
Co145      Cl156   2.461       .  S
N146        C157   1.349       .  A
C147        C403   1.471       .  S
Co149      Cl156   2.433       .  S
C157        C410   1.476   1_455  S
C160        N178   1.351       .  A
C160        C197   1.456       .  S
C160        C533   1.472       .  S
N161        N178   1.325       .  A
N161        N183   1.322       .  A
N161       Co198   2.086       .  S
C162        N187   1.337       .  A
C162        C200   1.453       .  S
C162        H207   1.082       .  S
H163        C204   1.081       .  S
C164        N188   1.333       .  A
C164        C168   1.461       .  S
C164        H193   1.081       .  S
Co165       N183   2.084       .  S
Co165       N173   2.085       .  S
Co165       N205   2.089       .  S
Co165       N181   2.102       .  S
Co165      Cl209   2.446       .  S
N166        C204   1.344       .  A
N166        N173   1.321       .  A
N166       Co167   2.086       .  S
Co167       N170   2.090       .  S
Co167       N187   2.078       .  S
Co167       N174   2.082       .  S
Co167      Cl209   2.460       .  S
C168        N206   1.355       .  A
C168        C373   1.485       .  S
N169        N176   1.319       .  A
N169        N199   1.322       .  A
N169       Co202   2.072       .  S
N170        N188   1.318       .  A
N170        N206   1.327       .  A
N171        C200   1.355       .  A
N171        N181   1.330       .  A
H172        C197   1.081       .  S
N173        N194   1.322       .  A
N174        N192   1.317       .  A
N174        N179   1.324       .  A
C175        N179   1.353       .  A
C175        C203   1.457       .  S
C175        C523   1.474   1_545  S
N176        C191   1.344       .  A
N176       Co198   2.090       .  S
C177        N205   1.345       .  A
C177        C180   1.461       .  S
C177        H211   1.081       .  S
C180        N201   1.343       .  A
C180        C350   1.464       .  S
N181        N187   1.321       .  A
N182        C208   1.341       .  A
N182        N184   1.319       .  A
N182       Co198   2.080       .  S
N183        C197   1.337       .  A
N184        N212   1.322       .  A
N184       Co202   2.074       .  S
H185        C208   1.081       .  S
H186        C203   1.080       .  S
N188       Co202   2.069       .  S
N189        N201   1.321       .  A
N189        N205   1.321       .  A
N189       Co198   2.075       .  S
C190        N194   1.347       .  A
C190        C204   1.461       .  S
C190        C470   1.469       .  S
C191        C210   1.465       .  S
C191        H195   1.082       .  S
N192        C203   1.336       .  A
N192       Co202   2.070       .  S
C196        N212   1.346       .  A
C196        C208   1.458       .  S
C196        C460   1.460       .  S
Co198      Cl209   2.457       .  S
N199        C210   1.346       .  A
C200        C363   1.479       .  S
Co202      Cl209   2.430       .  S
C210        C340   1.474       .  S
C213        N231   1.358       .  A
C213        C250   1.455       .  S
C213        C430   1.489       .  S
N214        N231   1.330       .  A
N214        N236   1.319       .  A
N214       Co251   2.103       .  S
C215        N240   1.336       .  A
C215        C253   1.460       .  S
C215        H260   1.082       .  S
H216        C257   1.081       .  S
C217        N241   1.339       .  A
C217        C221   1.455       .  S
C217        H246   1.081       .  S
Co218       N236   2.062       .  S
Co218       N226   2.086       .  S
Co218       N258   2.083       .  S
Co218       N234   2.079       .  S
Co218      Cl262   2.449       .  S
N219        C257   1.337       .  A
N219        N226   1.318       .  A
N219       Co220   2.068       .  S
Co220       N223   2.078       .  S
Co220       N240   2.077       .  S
Co220       N227   2.073       .  S
Co220      Cl262   2.434       .  S
C221        N259   1.346       .  A
C221        C383   1.461       .  S
N222        N229   1.319       .  A
N222        N252   1.320       .  A
N222       Co255   2.076       .  S
N223        N241   1.319       .  A
N223        N259   1.323       .  A
N224        C253   1.351       .  A
N224        N234   1.325       .  A
H225        C250   1.081       .  S
N226        N247   1.325       .  A
N227        N245   1.318       .  A
N227        N232   1.319       .  A
C228        N232   1.349       .  A
C228        C256   1.467       .  S
C228        C353   1.481       .  S
N229        C244   1.347       .  A
N229       Co251   2.100       .  S
C230        N258   1.341       .  A
C230        C233   1.461       .  S
C230        H264   1.081       .  S
C233        N254   1.349       .  A
C233        C390   1.477       .  S
N234        N240   1.318       .  A
N235        C261   1.337       .  A
N235        N237   1.319       .  A
N235       Co251   2.084       .  S
N236        C250   1.330       .  A
N237        N265   1.323       .  A
N237       Co255   2.078       .  S
H238        C261   1.081       .  S
H239        C256   1.081       .  S
N241       Co255   2.073       .  S
N242        N254   1.325       .  A
N242        N258   1.321       .  A
N242       Co251   2.091       .  S
C243        N247   1.350       .  A
C243        C257   1.453       .  S
C243        C320   1.464   1_455  S
C244        C263   1.474       .  S
C244        H248   1.081       .  S
N245        C256   1.344       .  A
N245       Co255   2.086       .  S
C249        N265   1.350       .  A
C249        C261   1.464       .  S
C249        C330   1.485       .  S
Co251      Cl262   2.454       .  S
N252        C263   1.345       .  A
C253        C420   1.469       .  S
Co255      Cl262   2.452       .  S
C263        C343   1.492       .  S
C266        N284   1.349       .  A
C266        C303   1.459       .  S
C266        C413   1.477       .  S
N267        N284   1.324       .  A
N267        N289   1.317       .  A
N267       Co304   2.074       .  S
C268        N293   1.344       .  A
C268        C306   1.465       .  S
C268        H313   1.081       .  S
H269        C310   1.081   1_545  S
C270        N294   1.345       .  A
C270        C274   1.464       .  S
C270        H299   1.081       .  S
Co271       N289   2.075       .  S
Co271       N279   2.087       .  S
Co271       N311   2.082       .  S
Co271       N287   2.075       .  S
Co271      Cl315   2.433       .  S
N272        C310   1.337       .  A
N272        N279   1.319       .  A
N272       Co273   2.074       .  S
Co273       N276   2.079       .  S
Co273       N293   2.093       .  S
Co273       N280   2.081       .  S
Co273      Cl315   2.457       .  S
C274        N312   1.346       .  A
C274        C453   1.475       .  S
N275        N282   1.317       .  A
N275        N305   1.329       .  A
N275       Co308   2.112       .  S
N276        N294   1.321       .  A
N276        N312   1.323       .  A
N277        C306   1.348       .  A
N277        N287   1.323       .  A
H278        C303   1.081       .  S
N279        N300   1.325       .  A
N280        N298   1.323       .  A
N280        N285   1.325       .  A
C281        N285   1.350       .  A
C281        C309   1.458       .  S
C281        C400   1.471       .  S
N282        C297   1.332       .  A
N282       Co304   2.066       .  S
C283        N311   1.333       .  A
C283        C286   1.466       .  S
C283        H317   1.082       .  S
C286        N307   1.353       .  A
C286        C543   1.479       .  S
N287        N293   1.318       .  A
N288        C314   1.339       .  A
N288        N290   1.318       .  A
N288       Co304   2.072       .  S
N289        C303   1.336       .  A
N290        N318   1.323       .  A
N290       Co308   2.089       .  S
H291        C314   1.081       .  S
H292        C309   1.080       .  S
N294       Co308   2.094       .  S
N295        N307   1.326       .  A
N295        N311   1.318       .  A
N295       Co304   2.080       .  S
C296        N300   1.349   1_545  A
C296        C310   1.456   1_545  S
C296        C323   1.465       .  S
C297        C316   1.460       .  S
C297        H301   1.069       .  S
N298        C309   1.340       .  A
N298       Co308   2.098       .  S
C302        N318   1.350       .  A
C302        C314   1.465       .  S
C302        C333   1.485       .  S
Co304      Cl315   2.459       .  S
N305        C316   1.364       .  A
C306        C440   1.477       .  S
Co308      Cl315   2.444       .  S
C316        C553   1.501       .  S
C319        H326   1.083       .  S
C319        C320   1.400       .  A
C319        C324   1.395       .  A
C320        C321   1.408       .  A
C321        C322   1.400       .  A
C321       Br328   1.920   1_655  S
C322        H327   1.084       .  S
C322        C323   1.401       .  A
C323        C324   1.408       .  A
C324       Br325   1.920       .  S
C329        H336   1.081       .  S
C329        C330   1.404       .  A
C329        C334   1.395       .  A
C330        C331   1.415       .  A
C331        C332   1.399       .  A
C331       Br338   1.922       .  S
C332        H337   1.081       .  S
C332        C333   1.406       .  A
C333        C334   1.413       .  A
C334       Br335   1.919       .  S
C339        H346   1.084       .  S
C339        C340   1.397       .  A
C339        C344   1.399       .  A
C340        C341   1.409       .  A
C341        C342   1.402       .  A
C341       Br348   1.920       .  S
C342        H347   1.082       .  S
C342        C343   1.407       .  A
C343        C344   1.422       .  A
C344       Br345   1.924       .  S
C349        H356   1.084       .  S
C349        C350   1.403       .  A
C349        C354   1.404   1_556  A
C350        C351   1.400       .  A
C351        C352   1.393   1_556  A
C351       Br358   1.919       .  S
C352        H357   1.083       .  S
C352        C353   1.408       .  A
C353        C354   1.411       .  A
C354       Br355   1.918       .  S
C359        H366   1.083       .  S
C359        C360   1.399       .  A
C359        C364   1.401   1_564  A
C360        C361   1.411   1_565  A
C361        C362   1.403       .  A
C361       Br368   1.918       .  S
C362        H367   1.084       .  S
C362        C363   1.402   1_554  A
C363        C364   1.413       .  A
C364       Br365   1.920   1_545  S
C369        H376   1.084       .  S
C369        C370   1.403       .  A
C369        C374   1.405   1_565  A
C370        C371   1.402       .  A
C371        C372   1.391   1_565  A
C371       Br378   1.921       .  S
C372        H377   1.081       .  S
C372        C373   1.408       .  A
C373        C374   1.413       .  A
C374       Br375   1.919       .  S
C379        H386   1.083       .  S
C379        C380   1.401       .  A
C379        C384   1.395       .  A
C380        C381   1.406       .  A
C381        C382   1.398       .  A
C381       Br388   1.916       .  S
C382        H387   1.084       .  S
C382        C383   1.401       .  A
C383        C384   1.406       .  A
C384       Br385   1.920       .  S
C389        H396   1.084       .  S
C389        C390   1.403       .  A
C389        C394   1.401       .  A
C390        C391   1.411       .  A
C391        C392   1.399       .  A
C391       Br398   1.920       .  S
C392        H397   1.083       .  S
C392        C393   1.403       .  A
C393        C394   1.411       .  A
C394       Br395   1.920       .  S
C399        H406   1.084       .  S
C399        C400   1.401       .  A
C399        C404   1.398       .  A
C400        C401   1.408       .  A
C401        C402   1.399       .  A
C401       Br408   1.917       .  S
C402        H407   1.084       .  S
C402        C403   1.401       .  A
C403        C404   1.411       .  A
C404       Br405   1.920       .  S
C409        H416   1.083       .  S
C409        C410   1.404       .  A
C409        C414   1.400       .  A
C410        C411   1.409       .  A
C411        C412   1.393       .  A
C411       Br418   1.916   1_655  S
C412        H417   1.083       .  S
C412        C413   1.402       .  A
C413        C414   1.413       .  A
C414       Br415   1.920       .  S
C419        H426   1.083       .  S
C419        C420   1.404       .  A
C419        C424   1.396   1_454  A
C420        C421   1.405       .  A
C421        C422   1.401   1_554  A
C421       Br428   1.918       .  S
C422        H427   1.084   1_455  S
C422        C423   1.405   1_455  A
C423        C424   1.404       .  A
C424       Br425   1.918       .  S
C429        H436   1.080       .  S
C429        C430   1.408   1_655  A
C429        C434   1.391       .  A
C430        C431   1.415       .  A
C431        C432   1.406       .  A
C431       Br438   1.919       .  S
C432        H437   1.083       .  S
C432        C433   1.406   1_455  A
C433        C434   1.406       .  A
C434       Br435   1.924       .  S
C439        H446   1.083       .  S
C439        C440   1.402   1_545  A
C439        C444   1.405       .  A
C440        C441   1.403   1_554  A
C441        C442   1.400       .  A
C441       Br448   1.919       .  S
C442        H447   1.083       .  S
C442        C443   1.412   1_565  A
C443        C444   1.419   1_556  A
C444       Br445   1.916       .  S
C449        H456   1.083   1_565  S
C449        C450   1.406   1_565  A
C449        C454   1.399       .  A
C450        C451   1.406       .  A
C451        C452   1.404   1_545  A
C451       Br458   1.918       .  S
C452        H457   1.083       .  S
C452        C453   1.406       .  A
C453        C454   1.405       .  A
C454       Br455   1.919       .  S
C459        H466   1.084       .  S
C459        C460   1.400       .  A
C459        C464   1.395       .  A
C460        C461   1.405       .  A
C461        C462   1.398       .  A
C461       Br468   1.916       .  S
C462        H467   1.084       .  S
C462        C463   1.400       .  A
C463        C464   1.407       .  A
C464       Br465   1.920       .  S
C469        H476   1.083       .  S
C469        C470   1.403       .  A
C469        C474   1.403       .  A
C470        C471   1.408       .  A
C471        C472   1.395       .  A
C471       Br478   1.921       .  S
C472        H477   1.083       .  S
C472        C473   1.400       .  A
C473        C474   1.406       .  A
C474       Br475   1.918       .  S
C479        H486   1.083       .  S
C479        C480   1.405       .  A
C479        C484   1.388   1_656  A
C480        C481   1.410       .  A
C481        C482   1.410   1_656  A
C481       Br488   1.916       .  S
C482        H487   1.083       .  S
C482        C483   1.408       .  A
C483        C484   1.412       .  A
C484       Br485   1.927       .  S
C489        H496   1.083       .  S
C489        C490   1.402       .  A
C489        C494   1.404       .  A
C490        C491   1.417   1_455  A
C491        C492   1.404       .  A
C491       Br498   1.917       .  S
C492        H497   1.084       .  S
C492        C493   1.401       .  A
C493        C494   1.418   1_655  A
C494       Br495   1.921       .  S
C499        H506   1.084       .  S
C499        C500   1.397       .  A
C499        C504   1.397       .  A
C500        C501   1.400       .  A
C501        C502   1.394       .  A
C501       Br508   1.920       .  S
C502        H507   1.083       .  S
C502        C503   1.411       .  A
C503        C504   1.420       .  A
C504       Br505   1.918       .  S
C509        H516   1.082       .  S
C509        C510   1.407       .  A
C509        C514   1.399       .  A
C510        C511   1.419       .  A
C511        C512   1.398       .  A
C511       Br518   1.923       .  S
C512        H517   1.084       .  S
C512        C513   1.399       .  A
C513        C514   1.406       .  A
C514       Br515   1.921       .  S
C519        H526   1.084       .  S
C519        C520   1.404       .  A
C519        C524   1.397       .  A
C520        C521   1.414       .  A
C521        C522   1.396       .  A
C521       Br528   1.920       .  S
C522        H527   1.083       .  S
C522        C523   1.401       .  A
C523        C524   1.411       .  A
C524       Br525   1.921   1_565  S
C529        H536   1.083       .  S
C529        C530   1.402       .  A
C529        C534   1.399       .  A
C530        C531   1.405       .  A
C531        C532   1.397       .  A
C531       Br538   1.919       .  S
C532        H537   1.083       .  S
C532        C533   1.405       .  A
C533        C534   1.408       .  A
C534       Br535   1.919       .  S
C539        H546   1.084       .  S
C539        C540   1.409       .  A
C539        C544   1.408   1_556  A
C540        C541   1.418       .  A
C541        C542   1.387   1_556  A
C541       Br548   1.926       .  S
C542        H547   1.083       .  S
C542        C543   1.399       .  A
C543        C544   1.408       .  A
C544       Br545   1.917       .  S
C549        H556   1.083       .  S
C549        C550   1.400       .  A
C549        C554   1.399       .  A
C550        C551   1.422       .  A
C551        C552   1.402       .  A
C551       Br558   1.918       .  S
C552        H557   1.083       .  S
C552        C553   1.404       .  A
C553        C554   1.424       .  A
C554       Br555   1.917       .  S
