geometry optimzed in LAMMPS
_audit_creation_date              2020-11-30 
_audit_creation_method            'lammps2cif' 
_symmetry_space_group_name_H-M    'P1' 
_symmetry_Int_Tables_number       1 
_symmetry_cell_setting            triclinic 
loop_ 
_symmetry_equiv_pos_as_xyz 
  x,y,z 
_cell_length_a                    47.92272755 
_cell_length_b                    25.181747011469024 
_cell_length_c                    37.37928511796256 
_cell_angle_alpha                 91.58867054471946 
_cell_angle_beta                  90.2960535056506 
_cell_angle_gamma                 89.71153017678718 
loop_ 
_atom_site_label 
_atom_site_type_symbol 
_atom_site_fract_x 
_atom_site_fract_y 
_atom_site_fract_z 
_atom_site_charge 
C1          C  0.36323341  0.75011506  0.00635654     0.03100
C2          C  0.35447080  0.73084540  0.47053800    -0.13000
C3          C  0.33469884  0.69021753  0.46673891     0.00600
C4          C  0.32304034  0.66899581  0.49743390    -0.11500
C5          C  0.33131086  0.68762334  0.03308659     0.03100
C6          C  0.35262546  0.72531159  0.03672082    -0.11000
H7          H  0.36208441  0.74944270  0.44673487     0.08700
H8          H  0.30647088  0.63996953  0.49483315     0.06300
H9          H  0.35990278  0.73673076  0.06326964     0.06100
C10         C  0.12570831  0.86489431  0.00313329     0.03100
C11         C  0.14045753  0.85004360  0.47176230    -0.13000
C12         C  0.15823890  0.80550953  0.47093592     0.00600
C13         C  0.16254472  0.77761233  0.50248108    -0.11500
C14         C  0.14808104  0.79239224  0.03424676     0.03100
C15         C  0.12936983  0.83512565  0.03400391    -0.11000
H16         H  0.13701343  0.87191232  0.44755822     0.08700
H17         H  0.17580310  0.74266735  0.50227435     0.06300
H18         H  0.11701039  0.84407164  0.05763182     0.06100
C19         C  0.30373166  0.26319678  0.99703862     0.03100
C20         C  0.29701457  0.28739231  0.46471394    -0.13000
C21         C  0.27708621  0.32818921  0.46449598     0.00600
C22         C  0.26473682  0.34521637  0.49667305    -0.11500
C23         C  0.27139945  0.32268981  0.02850377     0.03100
C24         C  0.29045115  0.28042710  0.02879614    -0.11000
H25         H  0.30747518  0.27601094  0.44001519     0.08700
H26         H  0.24983672  0.37777466  0.49668236     0.06300
H27         H  0.29631100  0.26349206  0.05408286     0.06100
N28         N  0.47583427  0.98372114  0.00246912    -0.36600
N29         N  0.00507478  0.08466780  0.99917870    -0.57200
N30         N  0.45101416  0.13809737  0.99603381    -0.36600
N31         N  0.42210756  0.03713478  0.99815230    -0.57200
C32         C  0.50220197  0.96756285  0.00959621     0.27000
C33         C  0.45880450  0.94255846  0.00935673     0.27000
C34         C  0.46809790  0.17870814  0.98806429     0.27000
C35         C  0.42473120  0.15390893  0.98826277     0.27000
C36         C  0.02778750  0.05329294  0.00246498     0.35600
C37         C  0.01434755  0.13517463  0.99960233     0.35600
C38         C  0.41265429  0.98681021  0.99920278     0.35600
C39         C  0.39938997  0.06898575  0.99689994     0.35600
C40         C  0.50193271  0.91554118  0.02079458    -0.21900
C41         C  0.47457975  0.89988127  0.02085621    -0.21900
C42         C  0.45248679  0.22066521  0.97522767    -0.21900
C43         C  0.42514782  0.20508608  0.97541930    -0.21900
C44         C  0.05165347  0.08405290  0.00502377    -0.22900
C45         C  0.04309254  0.13588245  0.00409587    -0.22900
C46         C  0.38370489  0.98677900  0.99758362    -0.22900
C47         C  0.37533168  0.03879377  0.99732912    -0.22900
C48         C  0.02735449  0.99736442  0.00386746    -0.18300
C49         C  0.42950382  0.94123159  0.00437477    -0.18300
C50         C  0.40005097  0.12465935  0.99355142    -0.18300
C51         C  0.99764351  0.18032631  0.99307140    -0.18300
H52         H  0.02057642  0.88958722  0.02366869     0.14600
H53         H  0.46718733  0.86124107  0.02839306     0.14600
H54         H  0.45998829  0.25877996  0.96678257     0.14600
H55         H  0.40753451  0.22878250  0.96692170     0.14600
H56         H  0.07306088  0.07095887  0.00770902     0.12900
H57         H  0.05672635  0.16997254  0.00572996     0.12900
H58         H  0.36981159  0.95307416  0.99747252     0.12900
H59         H  0.35390315  0.05240568  0.99680886     0.12900
H60         H  0.47020407  0.01841132  0.98991089     0.26200
H61         H  0.45649388  0.10437428  0.00986043     0.26200
C62         C  0.06451783  0.37022094  0.99365349     0.03100
C63         C  0.07401720  0.38612922  0.02798427    -0.13000
C64         C  0.09344517  0.42701491  0.03227026     0.00600
C65         C  0.10045387  0.45805130  0.50409020    -0.11500
C66         C  0.09247490  0.44115914  0.46953669     0.03100
C67         C  0.07261851  0.40068038  0.46519272    -0.11000
H68         H  0.06707972  0.36572605  0.05145709     0.08700
H69         H  0.11545004  0.48987642  0.50771625     0.06300
H70         H  0.06572092  0.38914029  0.43849694     0.06100
O71         O  0.28344832  0.63191171  0.30672220    -0.75300
O72         O  0.25441119  0.59884787  0.34883376    -0.54200
C73         C  0.27656244  0.62296401  0.33924760     0.78400
O74         O  0.17469434  0.69251097  0.19117465    -0.59900
O75         O  0.18806494  0.62900446  0.15019664    -0.52900
C76         C  0.17700636  0.67403193  0.15886491     0.70500
O77         O  0.18283453  0.70070983  0.31200451    -0.74400
O78         O  0.20038775  0.64196715  0.35183415    -0.55000
C79         C  0.18921354  0.68657299  0.34388060     0.76500
O80         O  0.28029987  0.62095982  0.18588044    -0.59600
O81         O  0.24573849  0.59479264  0.14718522    -0.52700
C82         C  0.26988423  0.61447365  0.15425417     0.73100
Zr83       Zr  0.26511527  0.60799511  0.24723549     2.54700
O84         O  0.28378155  0.69750859  0.24515227    -0.80100
O85         O  0.31156851  0.56849763  0.24545413    -0.93600
Zr86       Zr  0.18678692  0.66358842  0.25121716     2.64700
O87         O  0.20615833  0.75266493  0.24912543    -0.98500
O88         O  0.13931140  0.69832061  0.25434884    -0.80600
O89         O  0.22736567  0.63826649  0.28321218    -0.83900
O90         O  0.22497475  0.63592117  0.21517569    -2.18600
O91         O  0.24477326  0.42582163  0.18735430    -0.67300
O92         O  0.22830093  0.48657842  0.14819952    -0.51900
C93         C  0.24044131  0.44272188  0.15554531     0.71400
O94         O  0.14364496  0.50085214  0.31451854    -0.60200
O95         O  0.17681144  0.53246165  0.35333035    -0.52200
C96         C  0.15325685  0.51031435  0.34625771     0.73200
O97         O  0.13928119  0.49388424  0.19339941    -0.71600
O98         O  0.17032159  0.52035513  0.15131087    -0.50300
C99         C  0.14736265  0.49921224  0.16089885     0.74600
O100        O  0.24600003  0.42757350  0.30903060    -0.67000
O101        O  0.23369163  0.49211419  0.35000186    -0.54200
C102        C  0.24381600  0.44626499  0.34133489     0.73000
Zr103      Zr  0.23652488  0.45902327  0.24878677     2.77500
O104        O  0.21860877  0.36864014  0.24815083    -0.97700
O105        O  0.28419561  0.42521588  0.24856684    -0.78500
Zr106      Zr  0.15821311  0.51497304  0.25303646     2.70100
O107        O  0.13919181  0.42560035  0.25448008    -0.79800
O108        O  0.11176944  0.55447511  0.25571049    -0.98900
Zr109      Zr  0.21426051  0.56434964  0.31711602     2.21500
Zr110      Zr  0.20922010  0.55885019  0.18329564     2.13100
O111        O  0.19592615  0.48427286  0.21689748    -2.47500
O112        O  0.19839075  0.48719835  0.28517291    -0.79600
O113        O  0.25021342  0.53173296  0.21381031    -0.71800
O114        O  0.17311001  0.59129842  0.28650703    -2.32700
O115        O  0.25280275  0.53450968  0.28210495    -2.28900
O116        O  0.17048450  0.58824017  0.21791385    -0.73500
H117        H  0.22974960  0.66382054  0.19917358     0.78500
H118        H  0.15876776  0.60272634  0.30314222     0.79600
H119        H  0.19006738  0.45490396  0.20141037     0.81800
H120        H  0.26837749  0.52471450  0.29709311     0.79400
H121        H  0.12978338  0.67572279  0.27171549     0.42400
H122        H  0.11043711  0.57618176  0.23409453     0.41400
H123        H  0.15575174  0.40232085  0.25698856     0.41100
H124        H  0.20535292  0.36683567  0.22775320     0.39000
H125        H  0.29563457  0.45549056  0.25740160     0.42100
H126        H  0.31459381  0.55454365  0.26965856     0.36900
H127        H  0.26827284  0.72065969  0.25363030     0.43000
H128        H  0.21461345  0.75471122  0.22509812     0.39500
H129        H  0.23460443  0.34626490  0.24028167     0.44400
H130        H  0.32432831  0.59922103  0.24428194     0.43100
H131        H  0.18964439  0.77638811  0.24820588     0.43200
H132        H  0.09894487  0.52436312  0.25086150     0.43600
C133        C  0.09838324  0.49281942  0.08181606    -0.26300
C134        C  0.10457120  0.44190469  0.06783599    -0.14400
C135        C  0.12305626  0.40838352  0.08654217     0.36300
C136        C  0.13500167  0.42709435  0.11864536    -0.25800
C137        C  0.12956847  0.47865972  0.13189739    -0.15000
C138        C  0.11093631  0.51197898  0.11343097     0.37300
N139        N  0.10475499  0.56552278  0.12539856    -0.89200
H140        H  0.08441233  0.51861357  0.06730544     0.18500
H141        H  0.14999291  0.40225330  0.13227873     0.18400
N142        N  0.13173580  0.35699377  0.07281329    -0.88300
H143        H  0.11205539  0.59104412  0.10599211     0.35800
H144        H  0.11510111  0.57564161  0.14924548     0.40900
H145        H  0.12353641  0.34819742  0.04746882     0.40500
H146        H  0.12410742  0.32853467  0.09004301     0.35400
C147        C  0.09297740  0.47776405  0.40804937    -0.26300
C148        C  0.10769502  0.46064612  0.43819818    -0.14400
C149        C  0.13710328  0.45928359  0.43754417     0.36300
C150        C  0.15123776  0.47632511  0.40745089    -0.25800
C151        C  0.13670515  0.49332404  0.37714540    -0.15000
C152        C  0.10716014  0.49380516  0.37730393     0.37300
N153        N  0.09166353  0.51185821  0.34688909    -0.89200
H154        H  0.07037124  0.47837437  0.40847891     0.18500
H155        H  0.17385520  0.47481321  0.40750122     0.18400
N156        N  0.15274781  0.43862846  0.46689438    -0.88300
H157        H  0.07036864  0.51413658  0.35274749     0.35800
H158        H  0.09359943  0.48283836  0.32651439     0.40900
H159        H  0.16638189  0.46819685  0.47633829     0.40500
H160        H  0.16471307  0.40651290  0.45730313     0.35400
C161        C  0.03151593  0.24090308  0.46351997    -0.26300
C162        C  0.01180800  0.23249646  0.99084788    -0.14400
C163        C  0.50728023  0.27362449  0.01774159     0.36300
C164        C  0.02373317  0.31971336  0.01517199    -0.25800
C165        C  0.04500322  0.32465244  0.98974277    -0.15000
C166        C  0.04842406  0.28629921  0.46390936     0.37300
N167        N  0.07052863  0.29024939  0.43826118    -0.89200
H168        H  0.03458528  0.21013268  0.44304219     0.18500
H169        H  0.02033931  0.35098813  0.03519749     0.18400
N170        N  0.48865874  0.26873589  0.04752077    -0.88300
H171        H  0.07051851  0.25751104  0.42042596     0.35800
H172        H  0.08944870  0.28894991  0.45226985     0.40900
H173        H  0.47970228  0.23118496  0.04848007     0.40500
H174        H  0.47242569  0.29611726  0.04433278     0.35400
C175        C  0.32992943  0.18554410  0.47058016    -0.26300
C176        C  0.32729005  0.22483481  0.99802089    -0.14400
C177        C  0.34878253  0.23002587  0.02396941     0.36300
C178        C  0.37096463  0.19370946  0.02335646    -0.25800
C179        C  0.37359710  0.15550826  0.99560528    -0.15000
C180        C  0.35326122  0.15180944  0.46767122     0.37300
N181        N  0.35580105  0.11462420  0.43797930    -0.89200
H182        H  0.31324485  0.18177459  0.45102325     0.18500
H183        H  0.38738286  0.19732258  0.04333030     0.18400
N184        N  0.34893526  0.27381938  0.04952113    -0.88300
H185        H  0.33835640  0.11685502  0.42116265     0.35800
H186        H  0.37299086  0.12592475  0.42290971     0.40900
H187        H  0.35097704  0.30870700  0.03525110     0.40500
H188        H  0.36634185  0.27181108  0.06643531     0.35400
C189        C  0.27006043  0.40547007  0.06509908    -0.26300
C190        C  0.26379194  0.35119423  0.06215031    -0.14400
C191        C  0.25146994  0.32570302  0.09120088     0.36300
C192        C  0.24490558  0.35573455  0.12241942    -0.25800
C193        C  0.25030859  0.41048742  0.12464676    -0.15000
C194        C  0.26357815  0.43533866  0.09600061     0.37300
N195        N  0.27053580  0.49085747  0.09852101    -0.89200
H196        H  0.28033616  0.42459954  0.04316244     0.18500
H197        H  0.23470130  0.33688899  0.14450610     0.18400
N198        N  0.24523586  0.26996857  0.08859851    -0.88300
H199        H  0.28008238  0.50304679  0.07505267     0.35800
H200        H  0.28528760  0.49576358  0.11903444     0.40900
H201        H  0.23027643  0.26449036  0.06839144     0.40500
H202        H  0.23618375  0.25740823  0.11228780     0.35400
C203        C  0.26569916  0.44059852  0.40108625    -0.26300
C204        C  0.25415123  0.41391974  0.37108572    -0.14400
C205        C  0.25210844  0.35792068  0.37074198     0.36300
C206        C  0.26089313  0.33011305  0.40100251    -0.25800
C207        C  0.27113698  0.35736943  0.43152871    -0.15000
C208        C  0.27439781  0.41297556  0.43114225     0.37300
N209        N  0.28639761  0.44117012  0.46144025    -0.89200
H210        H  0.26791055  0.48341547  0.40113218     0.18500
H211        H  0.25865834  0.28733190  0.40140557     0.18400
N212        N  0.24021890  0.32975055  0.34040648    -0.88300
H213        H  0.28698297  0.48198075  0.45706451     0.35800
H214        H  0.30709728  0.42846085  0.46398190     0.40900
H215        H  0.21924935  0.34105185  0.33854444     0.40500
H216        H  0.24043364  0.28881905  0.34443560     0.35400
C217        C  0.07281543  0.97102873  0.03086503    -0.26300
C218        C  0.05424759  0.96807684  0.00179205    -0.14400
C219        C  0.05978940  0.93255234  0.47287346     0.36300
C220        C  0.08381885  0.90111678  0.47337836    -0.25800
C221        C  0.10320247  0.90553097  0.00182130    -0.15000
C222        C  0.09788534  0.94223043  0.03052797     0.37300
N223        N  0.11734088  0.95161015  0.05945781    -0.89200
H224        H  0.06799463  0.99676784  0.05375261     0.18500
H225        H  0.08706880  0.87256811  0.45154942     0.18400
N226        N  0.04178738  0.92811331  0.44200540    -0.88300
H227        H  0.12147246  0.99235802  0.06073250     0.35800
H228        H  0.13661816  0.93392534  0.05387370     0.40900
H229        H  0.02565726  0.95607737  0.44270340     0.40500
H230        H  0.03265774  0.89048685  0.44192570     0.35400
C231        C  0.15763990  0.67917128  0.09756777    -0.26300
C232        C  0.16644918  0.70610213  0.12903788    -0.14400
C233        C  0.16671482  0.76232895  0.13016752     0.36300
C234        C  0.15997492  0.78983599  0.09902230    -0.25800
C235        C  0.15245194  0.76242474  0.06724811    -0.15000
C236        C  0.15027090  0.70677828  0.06701043     0.37300
N237        N  0.14039042  0.67817102  0.03582636    -0.89200
H238        H  0.15672680  0.63617113  0.09647299     0.18500
H239        H  0.16129752  0.83279923  0.09922307     0.18400
N240        N  0.17500180  0.79126596  0.16214567    -0.88300
H241        H  0.15583010  0.65091378  0.02782859     0.35800
H242        H  0.12272886  0.65677157  0.04297046     0.40900
H243        H  0.15922982  0.78670908  0.18101141     0.40500
H244        H  0.17595151  0.83197523  0.15749602     0.35400
C245        C  0.14970889  0.77829048  0.40746312    -0.26300
C246        C  0.16858732  0.78297912  0.43628856    -0.14400
C247        C  0.19556648  0.76049547  0.43279878     0.36300
C248        C  0.20219105  0.73040635  0.40177281    -0.25800
C249        C  0.18268384  0.72349880  0.37391847    -0.15000
C250        C  0.15643588  0.74870589  0.37636040     0.37300
N251        N  0.13612519  0.74167729  0.34818008    -0.89200
H252        H  0.12889119  0.79485635  0.41005737     0.18500
H253        H  0.22252420  0.71157607  0.39947921     0.18400
N254        N  0.21590893  0.76752929  0.46092847    -0.88300
H255        H  0.11791778  0.76315302  0.35409143     0.35800
H256        H  0.13054107  0.70156984  0.34708434     0.40900
H257        H  0.22042090  0.80805682  0.46319582     0.40500
H258        H  0.23457525  0.74808037  0.45423594     0.35400
C259        C  0.40410575  0.79988148  0.48217074    -0.26300
C260        C  0.38280920  0.79593496  0.00957512    -0.14400
C261        C  0.37958470  0.83694688  0.03602091     0.36300
C262        C  0.39688453  0.88164689  0.03524995    -0.25800
C263        C  0.41531461  0.88904593  0.00683996    -0.15000
C264        C  0.41937839  0.84673747  0.47954799     0.37300
N265        N  0.43759861  0.85134093  0.44933755    -0.89200
H266        H  0.40766958  0.76836349  0.46238232     0.18500
H267        H  0.39450532  0.91303833  0.05545576     0.18400
N268        N  0.35783244  0.83494243  0.06229216    -0.88300
H269        H  0.45417636  0.82474106  0.45262813     0.35800
H270        H  0.44605835  0.88921775  0.44759612     0.40900
H271        H  0.33873286  0.83687764  0.04873456     0.40500
H272        H  0.35856312  0.86813189  0.07971198     0.35400
C273        C  0.33004097  0.64383670  0.09209254    -0.26300
C274        C  0.31589042  0.66982628  0.06464855    -0.14400
C275        C  0.28678666  0.67799623  0.06696194     0.36300
C276        C  0.27228503  0.65873392  0.09626512    -0.25800
C277        C  0.28630736  0.63250650  0.12369586    -0.15000
C278        C  0.31545814  0.62464672  0.12160173     0.37300
N279        N  0.32996913  0.59624266  0.14892790    -0.89200
H280        H  0.35236488  0.63751813  0.09003643     0.18500
H281        H  0.24994906  0.66521535  0.09809624     0.18400
N282        N  0.27215613  0.70638353  0.03967667    -0.88300
H283        H  0.35129684  0.59387750  0.14330655     0.35800
H284        H  0.32253155  0.55726311  0.14822986     0.40900
H285        H  0.27956757  0.74537925  0.04031178     0.40500
H286        H  0.25081274  0.70863908  0.04524815     0.35400
C287        C  0.31443316  0.71079239  0.40700484    -0.26300
C288        C  0.32409258  0.67271906  0.43100063    -0.14400
C289        C  0.32107956  0.61816559  0.42209490     0.36300
C290        C  0.30633235  0.60291094  0.39103704    -0.25800
C291        C  0.29532905  0.64096664  0.36821937    -0.15000
C292        C  0.29999756  0.69536311  0.37557743     0.37300
N293        N  0.28897785  0.73461048  0.35205083    -0.89200
H294        H  0.31676427  0.75265617  0.41376934     0.18500
H295        H  0.30288249  0.56112233  0.38490116     0.18400
N296        N  0.33254147  0.57856959  0.44503233    -0.88300
H297        H  0.29432562  0.77280957  0.36129754     0.35800
H298        H  0.26720698  0.73247175  0.35290503     0.40900
H299        H  0.35422901  0.58284645  0.44507360     0.40500
H300        H  0.32838472  0.54039061  0.43470647     0.35400
C301        C  0.36377386  0.74843281  0.50472507     0.03100
C302        C  0.35376247  0.73295913  0.97219140    -0.13000
C303        C  0.33416955  0.69213064  0.96832331     0.00600
C304        C  0.32269285  0.67040134  0.99893789    -0.11500
C305        C  0.33160744  0.68651024  0.53154758     0.03100
C306        C  0.35301756  0.72398260  0.53509346    -0.11000
H307        H  0.36122607  0.75186516  0.94842267     0.08700
H308        H  0.30621272  0.64119740  0.99626251     0.06300
H309        H  0.36023386  0.73564854  0.56162744     0.06100
C310        C  0.12573357  0.86452789  0.50298543     0.03100
C311        C  0.14084875  0.85075704  0.97216087    -0.13000
C312        C  0.15847293  0.80598569  0.97135082     0.00600
C313        C  0.16231805  0.77765542  0.00282832    -0.11500
C314        C  0.14871674  0.79274366  0.53408630     0.03100
C315        C  0.12996099  0.83540951  0.53402633    -0.11000
H316        H  0.13790848  0.87321034  0.94811086     0.08700
H317        H  0.17558377  0.74274228  0.00269810     0.06300
H318        H  0.11797379  0.84474319  0.55791331     0.06100
C319        C  0.30495688  0.26419207  0.49707078     0.03100
C320        C  0.29646375  0.28682664  0.96460282    -0.13000
C321        C  0.27674140  0.32793958  0.96405446     0.00600
C322        C  0.26379680  0.34467536  0.99588956    -0.11500
C323        C  0.27306655  0.32379789  0.52921031     0.03100
C324        C  0.29225231  0.28172697  0.52915322    -0.11000
H325        H  0.30736693  0.27567714  0.94017912     0.08700
H326        H  0.24904692  0.37747323  0.99564123     0.06300
H327        H  0.29861132  0.26510879  0.55434818     0.06100
N328        N  0.47610743  0.98288057  0.50083613    -0.36600
N329        N  0.00534294  0.08427523  0.49920114    -0.57200
N330        N  0.45169035  0.13726011  0.49334840    -0.36600
N331        N  0.42248297  0.03643078  0.49606644    -0.57200
C332        C  0.50248683  0.96660527  0.50783432     0.27000
C333        C  0.45904028  0.94160503  0.50745022     0.27000
C334        C  0.46884160  0.17778055  0.48539521     0.27000
C335        C  0.42548927  0.15292819  0.48508481     0.27000
C336        C  0.02795312  0.05254981  0.50214568     0.35600
C337        C  0.01488006  0.13458106  0.49857594     0.35600
C338        C  0.41284962  0.98631871  0.49814010     0.35600
C339        C  0.39989772  0.06867809  0.49513307     0.35600
C340        C  0.50218813  0.91432848  0.51853859    -0.21900
C341        C  0.47483846  0.89868934  0.51850784    -0.21900
C342        C  0.45337363  0.21944673  0.47191406    -0.21900
C343        C  0.42603210  0.20380438  0.47174340    -0.21900
C344        C  0.05201590  0.08286757  0.50335117    -0.22900
C345        C  0.04370567  0.13481127  0.50201664    -0.22900
C346        C  0.38387494  0.98682940  0.49748304    -0.22900
C347        C  0.37573203  0.03897035  0.49676669    -0.22900
C348        C  0.02725896  0.99676377  0.50471233    -0.18300
C349        C  0.42964618  0.94049972  0.50298990    -0.18300
C350        C  0.40074592  0.12423971  0.49107771    -0.18300
C351        C  0.99823931  0.17993325  0.49234197    -0.18300
H352        H  0.01999997  0.89081374  0.52801263     0.14600
H353        H  0.46746126  0.85996175  0.52587100     0.14600
H354        H  0.46095944  0.25748872  0.46344428     0.14600
H355        H  0.40847095  0.22740141  0.46295794     0.14600
H356        H  0.07340619  0.06943351  0.50545332     0.12900
H357        H  0.05755786  0.16859358  0.50269415     0.12900
H358        H  0.36980042  0.95346975  0.49820588     0.12900
H359        H  0.35436603  0.05296946  0.49674332     0.12900
H360        H  0.47049221  0.01796937  0.48880093     0.26200
H361        H  0.45698117  0.10399345  0.50777497     0.26200
C362        C  0.06302577  0.37320560  0.49497892     0.03100
C363        C  0.07262653  0.38882308  0.52934478    -0.13000
C364        C  0.09107796  0.43129595  0.53388439     0.00600
C365        C  0.10395872  0.45170824  0.00229660    -0.11500
C366        C  0.09564114  0.43498461  0.96790281     0.03100
C367        C  0.07493702  0.39613744  0.96369946    -0.11000
H368        H  0.06665327  0.36682137  0.55257961     0.08700
H369        H  0.11964096  0.48235829  0.00571083     0.06300
H370        H  0.06788124  0.38480875  0.93702752     0.06100
O371        O  0.28488116  0.63342389  0.80732164    -0.75300
O372        O  0.25593092  0.59964910  0.84926660    -0.54200
C373        C  0.27801172  0.62401901  0.83979108     0.78400
O374        O  0.17653527  0.69415282  0.69102989    -0.59900
O375        O  0.18935620  0.63000298  0.65015496    -0.52900
C376        C  0.17860802  0.67533411  0.65874477     0.70500
O377        O  0.18454024  0.70286112  0.81203920    -0.74400
O378        O  0.20187759  0.64402014  0.85193779    -0.55000
C379        C  0.19079370  0.68873566  0.84395975     0.76500
O380        O  0.28169232  0.62324423  0.68606881    -0.59600
O381        O  0.24698275  0.59724940  0.64753665    -0.52700
C382        C  0.27112791  0.61690777  0.65448620     0.73100
Zr383      Zr  0.26659755  0.61057659  0.74759069     2.54700
O384        O  0.28329745  0.70154575  0.74624219    -0.80100
O385        O  0.31409838  0.57583744  0.74569182    -0.93600
Zr386      Zr  0.18809973  0.66517572  0.75135313     2.64700
O387        O  0.20620294  0.75519739  0.74890819    -0.98500
O388        O  0.14012096  0.69690867  0.75588523    -0.80600
O389        O  0.22869636  0.64022426  0.78350612    -0.83900
O390        O  0.22637217  0.63766713  0.71543069    -2.18600
O391        O  0.24735684  0.42812501  0.68796770    -0.67300
O392        O  0.23068316  0.48850957  0.64872881    -0.51900
C393        C  0.24306454  0.44492156  0.65615388     0.71400
O394        O  0.14607424  0.49920735  0.81405866    -0.60200
O395        O  0.17844883  0.53299752  0.85325408    -0.52200
C396        C  0.15543198  0.50910382  0.84584179     0.73200
O397        O  0.14063335  0.49692415  0.69321275    -0.71600
O398        O  0.17238444  0.52033687  0.65116728    -0.50300
C399        C  0.14901749  0.50070007  0.66071152     0.74600
O400        O  0.24810006  0.42997841  0.80905617    -0.67000
O401        O  0.23523197  0.49379142  0.85022058    -0.54200
C402        C  0.24563354  0.44822634  0.84138445     0.73000
Zr403      Zr  0.23839612  0.46131764  0.74905820     2.77500
O404        O  0.22037544  0.37105649  0.74882382    -0.97700
O405        O  0.28596384  0.42708158  0.74938881    -0.78500
Zr406      Zr  0.15989008  0.51655782  0.75288105     2.70100
O407        O  0.14004367  0.42773979  0.75245536    -0.79800
O408        O  0.11368393  0.55681008  0.75714146    -0.98900
Zr409      Zr  0.21578193  0.56609592  0.81734607     2.21500
Zr410      Zr  0.21082175  0.56040913  0.68348106     2.13100
O411        O  0.19771900  0.48579170  0.71702862    -2.47500
O412        O  0.20007958  0.48907594  0.78516758    -0.79600
O413        O  0.25195501  0.53408184  0.71413178    -0.71800
O414        O  0.17462882  0.59272653  0.78665094    -2.32700
O415        O  0.25450780  0.53683084  0.78239531    -2.28900
O416        O  0.17197110  0.58989462  0.71781726    -0.73500
H417        H  0.23107910  0.66560501  0.69942892     0.78500
H418        H  0.16027363  0.60386988  0.80334864     0.79600
H419        H  0.19196349  0.45633317  0.70155250     0.81800
H420        H  0.27011110  0.52707797  0.79735232     0.79400
H421        H  0.13097613  0.67233769  0.77234347     0.42400
H422        H  0.11204577  0.57870579  0.73564104     0.41400
H423        H  0.15404461  0.40512553  0.73987464     0.41100
H424        H  0.21053026  0.36648151  0.72559764     0.39000
H425        H  0.29771168  0.45872231  0.75413645     0.42100
H426        H  0.31576116  0.55350325  0.76696497     0.36900
H427        H  0.26867403  0.72270447  0.75878357     0.43000
H428        H  0.21705128  0.75581984  0.72645831     0.39500
H429        H  0.23717564  0.34820827  0.74644129     0.44400
H430        H  0.32597042  0.60706636  0.75140112     0.43100
H431        H  0.18959725  0.77756754  0.74425439     0.43200
H432        H  0.10065567  0.52694357  0.75256909     0.43600
C433        C  0.09480532  0.49128600  0.58702089    -0.26300
C434        C  0.10337364  0.44433277  0.56917530    -0.14400
C435        C  0.12547880  0.41384921  0.58346677     0.36300
C436        C  0.13896442  0.43222491  0.61463815    -0.25800
C437        C  0.13100688  0.48003602  0.63181468    -0.15000
C438        C  0.10843720  0.50977921  0.61814534     0.37300
N439        N  0.09943608  0.55949188  0.63421392    -0.89200
H440        H  0.07800732  0.51476742  0.57591460     0.18500
H441        H  0.15658259  0.40992948  0.62481832     0.18400
N442        N  0.13581929  0.36586311  0.56630083    -0.88300
H443        H  0.10330327  0.58921742  0.61591432     0.35800
H444        H  0.11083414  0.56932223  0.65729244     0.40900
H445        H  0.12529453  0.35659270  0.54248321     0.40500
H446        H  0.13217750  0.33465945  0.58352912     0.35400
C447        C  0.09578027  0.47511976  0.90772486    -0.26300
C448        C  0.11068651  0.45427445  0.93653692    -0.14400
C449        C  0.13999775  0.45051969  0.93490119     0.36300
C450        C  0.15397250  0.46922901  0.90517509    -0.25800
C451        C  0.13922497  0.49024309  0.87630075    -0.15000
C452        C  0.10974748  0.49283734  0.87733069     0.37300
N453        N  0.09418324  0.51494017  0.84826718    -0.89200
H454        H  0.07322620  0.47764071  0.90903070     0.18500
H455        H  0.17654185  0.46614199  0.90433431     0.18400
N456        N  0.15560491  0.42619145  0.96292923    -0.88300
H457        H  0.07301531  0.51788951  0.85473330     0.35800
H458        H  0.09536522  0.48797316  0.82657053     0.40900
H459        H  0.17002175  0.45386682  0.97305712     0.40500
H460        H  0.16672283  0.39402322  0.95178295     0.35400
C461        C  0.03110944  0.23942489  0.96330572    -0.26300
C462        C  0.01233296  0.23237986  0.49098266    -0.14400
C463        C  0.50715824  0.27311542  0.51651167     0.36300
C464        C  0.02337863  0.31945954  0.51640845    -0.25800
C465        C  0.04435633  0.32629109  0.49083249    -0.15000
C466        C  0.04867922  0.28379422  0.96334380     0.37300
N467        N  0.07113014  0.28566382  0.93803462    -0.89200
H468        H  0.03391174  0.20792037  0.94327205     0.18500
H469        H  0.01968831  0.34999748  0.53685728     0.18400
N470        N  0.48787335  0.26793372  0.54556489    -0.88300
H471        H  0.07074795  0.25249537  0.92057603     0.35800
H472        H  0.08986125  0.28352999  0.95240206     0.40900
H473        H  0.47906818  0.23022072  0.54619767     0.40500
H474        H  0.47159133  0.29500493  0.54171617     0.35400
C475        C  0.32945390  0.18512629  0.97096207    -0.26300
C476        C  0.32845880  0.22562261  0.49747407    -0.14400
C477        C  0.35049082  0.23080550  0.52267051     0.36300
C478        C  0.37262130  0.19436778  0.52134966    -0.25800
C479        C  0.37451539  0.15571647  0.49376075    -0.15000
C480        C  0.35296820  0.15177497  0.96867793     0.37300
N481        N  0.35635371  0.11522416  0.93877317    -0.89200
H482        H  0.31322193  0.18144147  0.95077860     0.18500
H483        H  0.38947882  0.19803047  0.54070799     0.18400
N484        N  0.35116185  0.27456038  0.54823865    -0.88300
H485        H  0.33931321  0.11755825  0.92129711     0.35800
H486        H  0.37385790  0.12707938  0.92451023     0.40900
H487        H  0.35289384  0.30947983  0.53393707     0.40500
H488        H  0.36890699  0.27250801  0.56456161     0.35400
C489        C  0.27165254  0.40716009  0.56523922    -0.26300
C490        C  0.26593696  0.35260552  0.56295004    -0.14400
C491        C  0.25447230  0.32724017  0.59263257     0.36300
C492        C  0.24835466  0.35756513  0.62386481    -0.25800
C493        C  0.25302814  0.41258869  0.62536819    -0.15000
C494        C  0.26533936  0.43742937  0.59602746     0.37300
N495        N  0.27136380  0.49339050  0.59763522    -0.89200
H496        H  0.28123096  0.42627435  0.54278959     0.18500
H497        H  0.23883501  0.33874463  0.64645909     0.18400
N498        N  0.24842852  0.27140171  0.59057929    -0.88300
H499        H  0.28013874  0.50553369  0.57366560     0.35800
H500        H  0.28646173  0.49979236  0.61755886     0.40900
H501        H  0.23301995  0.26551080  0.57098415     0.40500
H502        H  0.23997249  0.25901136  0.61467389     0.35400
C503        C  0.26699552  0.44153084  0.90131224    -0.26300
C504        C  0.25581133  0.41540969  0.87089337    -0.14400
C505        C  0.25382416  0.35938275  0.86992283     0.36300
C506        C  0.26201820  0.33101307  0.90015169    -0.25800
C507        C  0.27165426  0.35772795  0.93118656    -0.15000
C508        C  0.27509892  0.41332246  0.93135624     0.37300
N509        N  0.28656597  0.44091090  0.96224115    -0.89200
H510        H  0.26925101  0.48435260  0.90175446     0.18500
H511        H  0.25972277  0.28822039  0.90013123     0.18400
N512        N  0.24254814  0.33173671  0.83898100    -0.88300
H513        H  0.28741119  0.48178537  0.95816886     0.35800
H514        H  0.30715581  0.42788603  0.96541335     0.40900
H515        H  0.22158916  0.34287954  0.83659587     0.40500
H516        H  0.24278870  0.29070482  0.84259972     0.35400
C517        C  0.07316338  0.97109844  0.53085024    -0.26300
C518        C  0.05396027  0.96687544  0.50250680    -0.14400
C519        C  0.06070348  0.93499259  0.97175934     0.36300
C520        C  0.08466410  0.90337282  0.97255709    -0.25800
C521        C  0.10302981  0.90470568  0.50186176    -0.15000
C522        C  0.09828528  0.94246961  0.53009279     0.37300
N523        N  0.11841717  0.95322364  0.55804043    -0.89200
H524        H  0.06884488  0.99784204  0.55339044     0.18500
H525        H  0.08830814  0.87565650  0.95035881     0.18400
N526        N  0.04333049  0.93181608  0.94025667    -0.88300
H527        H  0.12262694  0.99393693  0.55813951     0.35800
H528        H  0.13752392  0.93502887  0.55221647     0.40900
H529        H  0.02713313  0.95964181  0.94102542     0.40500
H530        H  0.03426737  0.89412057  0.93911142     0.35400
C531        C  0.15800097  0.68026343  0.59803565    -0.26300
C532        C  0.16805199  0.70730455  0.62886202    -0.14400
C533        C  0.16938770  0.76345632  0.62934401     0.36300
C534        C  0.16235337  0.79070329  0.59821078    -0.25800
C535        C  0.15353706  0.76315259  0.56708928    -0.15000
C536        C  0.15041814  0.70771191  0.56745909     0.37300
N537        N  0.13926297  0.67925363  0.53693586    -0.89200
H538        H  0.15609774  0.63736457  0.59756384     0.18500
H539        H  0.16437773  0.83353991  0.59789759     0.18400
N540        N  0.17893859  0.79250658  0.66067248    -0.88300
H541        H  0.15399010  0.65083277  0.52853644     0.35800
H542        H  0.12140678  0.65922274  0.54500247     0.40900
H543        H  0.16350921  0.78951938  0.68016497     0.40500
H544        H  0.18053625  0.83298373  0.65552270     0.35400
C545        C  0.15107978  0.78106014  0.90712778    -0.26300
C546        C  0.16931062  0.78400995  0.93672273    -0.14400
C547        C  0.19615827  0.76078584  0.93375976     0.36300
C548        C  0.20308636  0.73111552  0.90265050    -0.25800
C549        C  0.18413755  0.72570510  0.87403303    -0.15000
C550        C  0.15823593  0.75239189  0.87577993     0.37300
N551        N  0.13866589  0.74795174  0.84655477    -0.89200
H552        H  0.13040652  0.79842402  0.90916264     0.18500
H553        H  0.22324532  0.71151102  0.90085857     0.18400
N554        N  0.21610579  0.76682179  0.96243694    -0.88300
H555        H  0.12073599  0.77053416  0.85197558     0.35800
H556        H  0.13230773  0.70832403  0.84442228     0.40900
H557        H  0.22083644  0.80721519  0.96516702     0.40500
H558        H  0.23475503  0.74710469  0.95603220     0.35400
C559        C  0.40354582  0.80118834  0.98339557    -0.26300
C560        C  0.38319608  0.79453449  0.50807158    -0.14400
C561        C  0.37963815  0.83573322  0.53434470     0.36300
C562        C  0.39685670  0.88061594  0.53370710    -0.25800
C563        C  0.41540398  0.88820275  0.50542034    -0.15000
C564        C  0.41904531  0.84776030  0.98082201     0.37300
N565        N  0.43727800  0.85226495  0.95060590    -0.89200
H566        H  0.40687140  0.76976958  0.96346466     0.18500
H567        H  0.39429673  0.91199162  0.55388603     0.18400
N568        N  0.35761815  0.83374272  0.56025799    -0.88300
H569        H  0.45363738  0.82512372  0.95370137     0.35800
H570        H  0.44609515  0.88988849  0.94916779     0.40900
H571        H  0.33865346  0.83529698  0.54636229     0.40500
H572        H  0.35805664  0.86712729  0.57752143     0.35400
C573        C  0.33075375  0.64522230  0.59133589    -0.26300
C574        C  0.31626898  0.66916449  0.56330077    -0.14400
C575        C  0.28710514  0.67656034  0.56561708     0.36300
C576        C  0.27296556  0.65892873  0.59568333    -0.25800
C577        C  0.28734178  0.63465142  0.62367909    -0.15000
C578        C  0.31650591  0.62731480  0.62146357     0.37300
N579        N  0.33137378  0.60056961  0.64925202    -0.89200
H580        H  0.35311691  0.63946854  0.58927994     0.18500
H581        H  0.25059101  0.66488810  0.59753400     0.18400
N582        N  0.27202792  0.70247485  0.53758649    -0.88300
H583        H  0.35267481  0.59839335  0.64344257     0.35800
H584        H  0.32417974  0.56144513  0.64945936     0.40900
H585        H  0.27903667  0.74167927  0.53690009     0.40500
H586        H  0.25069801  0.70434639  0.54329640     0.35400
C587        C  0.31431819  0.71243399  0.90836125    -0.26300
C588        C  0.32386808  0.67450583  0.93252303    -0.14400
C589        C  0.32145182  0.61990964  0.92346149     0.36300
C590        C  0.30736387  0.60436688  0.89198423    -0.25800
C591        C  0.29651904  0.64223232  0.86890885    -0.15000
C592        C  0.30061350  0.69672850  0.87648418     0.37300
N593        N  0.28972390  0.73574869  0.85268781    -0.89200
H594        H  0.31622158  0.75433956  0.91525615     0.18500
H595        H  0.30427306  0.56250842  0.88572589     0.18400
N596        N  0.33290037  0.58056383  0.94660488    -0.88300
H597        H  0.29462355  0.77406904  0.86213331     0.35800
H598        H  0.26795997  0.73300609  0.85288083     0.40900
H599        H  0.35454448  0.58554544  0.94721846     0.40500
H600        H  0.32923226  0.54230049  0.93610069     0.35400
C601        C  0.86341132  0.74946223  0.00539302     0.03100
C602        C  0.85437846  0.73050013  0.47161722    -0.13000
C603        C  0.83458106  0.68986349  0.46834899     0.00600
C604        C  0.82349668  0.66851805  0.49931217    -0.11500
C605        C  0.83199197  0.68682189  0.03285678     0.03100
C606        C  0.85311458  0.72491371  0.03600220    -0.11000
H607        H  0.86163510  0.74910887  0.44763233     0.08700
H608        H  0.80688536  0.63951956  0.49713591     0.06300
H609        H  0.86050161  0.73672658  0.06242117     0.06100
C610        C  0.62466422  0.86331287  0.00302260     0.03100
C611        C  0.64038296  0.84964360  0.47275611    -0.13000
C612        C  0.65800459  0.80490400  0.47173211     0.00600
C613        C  0.66233920  0.77688158  0.50322768    -0.11500
C614        C  0.64705325  0.79080112  0.03417236     0.03100
C615        C  0.62857328  0.83392827  0.03403506    -0.11000
H616        H  0.63702508  0.87168049  0.44860966     0.08700
H617        H  0.67562681  0.74197408  0.50288811     0.06300
H618        H  0.61660356  0.84354027  0.05788923     0.06100
C619        C  0.80457622  0.26303057  0.99721367     0.03100
C620        C  0.79699452  0.28602201  0.46433012    -0.13000
C621        C  0.77726153  0.32723722  0.46415624     0.00600
C622        C  0.76508998  0.34456412  0.49636428    -0.11500
C623        C  0.77211146  0.32242286  0.02862858     0.03100
C624        C  0.79132582  0.28038187  0.02898623    -0.11000
H625        H  0.80736507  0.27446892  0.43960479     0.08700
H626        H  0.75033077  0.37735716  0.49644867     0.06300
H627        H  0.79725091  0.26363226  0.05430126     0.06100
N628        N  0.97638860  0.98309376  0.00083559    -0.36600
N629        N  0.50462601  0.08481696  0.00040447    -0.57200
N630        N  0.95150946  0.13758785  0.99495112    -0.36600
N631        N  0.92265350  0.03636009  0.99716618    -0.57200
C632        C  0.00284717  0.96678696  0.00716195     0.27000
C633        C  0.95949477  0.94139990  0.00692442     0.27000
C634        C  0.96853518  0.17831793  0.98703318     0.27000
C635        C  0.92523776  0.15307192  0.98689130     0.27000
C636        C  0.52734505  0.05331199  0.00324271     0.35600
C637        C  0.51400373  0.13521608  0.00000330     0.35600
C638        C  0.91318052  0.98608728  0.99864117     0.35600
C639        C  0.89995570  0.06829893  0.99637870     0.35600
C640        C  0.00277917  0.91404033  0.01689869    -0.21900
C641        C  0.97547624  0.89813783  0.01694602    -0.21900
C642        C  0.95290363  0.22002925  0.97391137    -0.21900
C643        C  0.92559773  0.20413925  0.97384847    -0.21900
C644        C  0.55130782  0.08384483  0.00473785    -0.22900
C645        C  0.54283212  0.13570805  0.00359101    -0.22900
C646        C  0.88420908  0.98621156  0.99786760    -0.22900
C647        C  0.87588474  0.03824878  0.99759280    -0.22900
C648        C  0.52680939  0.99749290  0.00538313    -0.18300
C649        C  0.93009131  0.94032119  0.00290268    -0.18300
C650        C  0.90060181  0.12387862  0.99256598    -0.18300
C651        C  0.49726748  0.18043934  0.99370770    -0.18300
H652        H  0.51963883  0.89141596  0.02840012     0.14600
H653        H  0.96825716  0.85900651  0.02363421     0.14600
H654        H  0.96036106  0.25821066  0.96553296     0.14600
H655        H  0.90794989  0.22764517  0.96523117     0.14600
H656        H  0.57272343  0.07057780  0.00691130     0.12900
H657        H  0.55658232  0.16964300  0.00450916     0.12900
H658        H  0.87027004  0.95259840  0.99810955     0.12900
H659        H  0.85446953  0.05196996  0.99745322     0.12900
H660        H  0.97058009  0.01864080  0.98957750     0.26200
H661        H  0.95696044  0.10413543  0.00908959     0.26200
C662        C  0.56322050  0.37137716  0.99402340     0.03100
C663        C  0.57358505  0.38627311  0.02813661    -0.13000
C664        C  0.59355096  0.42621201  0.03198181     0.00600
C665        C  0.60136553  0.45567232  0.50271502    -0.11500
C666        C  0.59306265  0.43901389  0.46823269     0.03100
C667        C  0.57264877  0.39952895  0.46411759    -0.11000
H668        H  0.56719986  0.36520151  0.05159372     0.08700
H669        H  0.61679594  0.48676161  0.50618569     0.06300
H670        H  0.56559999  0.38797758  0.43748230     0.06100
O671        O  0.78409211  0.63242024  0.30799732    -0.75300
O672        O  0.75465993  0.59874622  0.34946416    -0.54200
C673        C  0.77686492  0.62305282  0.34034453     0.78400
O674        O  0.67529297  0.69281974  0.19128433    -0.59900
O675        O  0.68921289  0.62968553  0.15030512    -0.52900
C676        C  0.67777822  0.67438910  0.15897527     0.70500
O677        O  0.68271668  0.70107994  0.31210645    -0.74400
O678        O  0.70037601  0.64225759  0.35181941    -0.55000
C679        C  0.68901153  0.68679780  0.34399509     0.76500
O680        O  0.78151488  0.62433922  0.18717421    -0.59600
O681        O  0.74729830  0.59739155  0.14816842    -0.52700
C682        C  0.77122198  0.61779715  0.15548302     0.73100
Zr683      Zr  0.76604386  0.60970896  0.24818918     2.54700
O684        O  0.78276974  0.70072821  0.24750530    -0.80100
O685        O  0.81286177  0.57180369  0.24540981    -0.93600
Zr686      Zr  0.68751357  0.66399620  0.25133078     2.64700
O687        O  0.70736606  0.75268811  0.24863008    -0.98500
O688        O  0.63991594  0.69784203  0.25472642    -0.80600
O689        O  0.72789786  0.63897563  0.28383555    -0.83900
O690        O  0.72601465  0.63695857  0.21570553    -2.18600
O691        O  0.74667158  0.42663756  0.18762335    -0.67300
O692        O  0.73016184  0.48750254  0.14858348    -0.51900
C693        C  0.74226045  0.44353988  0.15583800     0.71400
O694        O  0.64480058  0.49878692  0.31340108    -0.60200
O695        O  0.67699571  0.53262195  0.35276706    -0.52200
C696        C  0.65388440  0.50911487  0.34528400     0.73200
O697        O  0.64169241  0.49219094  0.19197480    -0.71600
O698        O  0.67279089  0.52036432  0.15059315    -0.50300
C699        C  0.65001872  0.49790477  0.15955757     0.74600
O700        O  0.74724360  0.42817901  0.30900337    -0.67000
O701        O  0.73403007  0.49202606  0.35001933    -0.54200
C702        C  0.74450072  0.44645298  0.34132116     0.73000
Zr703      Zr  0.73811895  0.46012746  0.24888338     2.77500
O704        O  0.71995655  0.36989742  0.24789543    -0.97700
O705        O  0.78606412  0.42767161  0.24855840    -0.78500
Zr706      Zr  0.65946417  0.51471487  0.25217725     2.70100
O707        O  0.63927455  0.42622821  0.25320222    -0.79800
O708        O  0.61318630  0.55481465  0.25496104    -0.98900
Zr709      Zr  0.71476839  0.56460855  0.31720625     2.21500
Zr710      Zr  0.71081693  0.55993111  0.18346241     2.13100
O711        O  0.69766029  0.48488835  0.21663584    -2.47500
O712        O  0.69952922  0.48739058  0.28479773    -0.79600
O713        O  0.75170477  0.53338634  0.21435368    -0.71800
O714        O  0.67383749  0.59108010  0.28603925    -2.32700
O715        O  0.75374253  0.53571749  0.28263349    -2.28900
O716        O  0.67168997  0.58858557  0.21759085    -0.73500
H717        H  0.73073907  0.66502166  0.19981603     0.78500
H718        H  0.65930845  0.60218422  0.30249798     0.79600
H719        H  0.69211256  0.45541523  0.20104487     0.81800
H720        H  0.76923336  0.52605423  0.29780302     0.79400
H721        H  0.62882524  0.66753401  0.26300765     0.42400
H722        H  0.61197289  0.57675859  0.23345402     0.41400
H723        H  0.65378089  0.40417720  0.26462569     0.41100
H724        H  0.71022228  0.36564616  0.22456878     0.39000
H725        H  0.79608635  0.45150766  0.26569326     0.42100
H726        H  0.81570407  0.55515348  0.26882332     0.36900
H727        H  0.76638981  0.72253943  0.25472829     0.43000
H728        H  0.71624648  0.75397333  0.22481797     0.39500
H729        H  0.73672059  0.34694641  0.24554606     0.44400
H730        H  0.82540529  0.60296704  0.24608468     0.43100
H731        H  0.69099901  0.77665658  0.24695167     0.43200
H732        H  0.60026586  0.52491371  0.24992645     0.43600
C733        C  0.59213157  0.47000947  0.09186082    -0.26300
C734        C  0.60662797  0.43796233  0.06691085    -0.14400
C735        C  0.63435773  0.42202686  0.07422132     0.36300
C736        C  0.64733258  0.44110173  0.10547511    -0.25800
C737        C  0.63334307  0.47508785  0.12986240    -0.15000
C738        C  0.60520965  0.48946193  0.12317044     0.37300
N739        N  0.58971600  0.52547916  0.14617038    -0.89200
H740        H  0.57090597  0.48226719  0.08605083     0.18500
H741        H  0.66886870  0.42993767  0.11049603     0.18400
N742        N  0.65016321  0.38767289  0.05036861    -0.88300
H743        H  0.58472016  0.55888618  0.13137110     0.35800
H744        H  0.60158245  0.53932800  0.16787150     0.40900
H745        H  0.63821661  0.37401362  0.02863618     0.40500
H746        H  0.65568609  0.35385840  0.06444795     0.35400
C747        C  0.59357271  0.47588142  0.40676655    -0.26300
C748        C  0.60828865  0.45801715  0.43673189    -0.14400
C749        C  0.63768631  0.45596613  0.43586553     0.36300
C750        C  0.65182628  0.47351841  0.40592743    -0.25800
C751        C  0.63730048  0.49142021  0.37589441    -0.15000
C752        C  0.60777050  0.49219967  0.37608841     0.37300
N753        N  0.59233317  0.51091622  0.34581572    -0.89200
H754        H  0.57097272  0.47698225  0.40731819     0.18500
H755        H  0.67444000  0.47171044  0.40584969     0.18400
N756        N  0.65330433  0.43415138  0.46483484    -0.88300
H757        H  0.57102022  0.51294314  0.35160088     0.35800
H758        H  0.59437150  0.48241015  0.32513266     0.40900
H759        H  0.66716505  0.46315360  0.47453924     0.40500
H760        H  0.66503511  0.40203332  0.45475422     0.35400
C761        C  0.53146645  0.24016693  0.46332827    -0.26300
C762        C  0.51138889  0.23265414  0.99158423    -0.14400
C763        C  0.00780938  0.27360077  0.01692080     0.36300
C764        C  0.52290832  0.32008568  0.01592816    -0.25800
C765        C  0.54394016  0.32553903  0.99027749    -0.15000
C766        C  0.54834626  0.28553459  0.46361301     0.37300
N767        N  0.57081936  0.28887105  0.43844201    -0.89200
H768        H  0.53482054  0.20895170  0.44323468     0.18500
H769        H  0.51953223  0.35121358  0.03606769     0.18400
N770        N  0.98903007  0.26916387  0.04657982    -0.88300
H771        H  0.57104292  0.25575332  0.42093558     0.35800
H772        H  0.58953478  0.28785027  0.45291208     0.40900
H773        H  0.97969665  0.23193042  0.04733424     0.40500
H774        H  0.97306872  0.29711247  0.04338462     0.35400
C775        C  0.83015148  0.18440197  0.47006087    -0.26300
C776        C  0.82802642  0.22437915  0.99804638    -0.14400
C777        C  0.84960164  0.22908510  0.02391934     0.36300
C778        C  0.87178681  0.19278231  0.02286927    -0.25800
C779        C  0.87419940  0.15477584  0.99497418    -0.15000
C780        C  0.85360360  0.15094972  0.46716466     0.37300
N781        N  0.85636700  0.11399192  0.43737549    -0.89200
H782        H  0.81362377  0.18078677  0.45027620     0.18500
H783        H  0.88833210  0.19614964  0.04268589     0.18400
N784        N  0.84981122  0.27230640  0.04990491    -0.88300
H785        H  0.83897943  0.11613851  0.42045731     0.35800
H786        H  0.87358930  0.12555301  0.42246273     0.40900
H787        H  0.85185138  0.30752854  0.03600651     0.40500
H788        H  0.86722999  0.26986878  0.06676762     0.35400
C789        C  0.77061796  0.40567744  0.06476591    -0.26300
C790        C  0.76456566  0.35127713  0.06220838    -0.14400
C791        C  0.75265749  0.32599032  0.09162753     0.36300
C792        C  0.74650931  0.35623490  0.12292077    -0.25800
C793        C  0.75181527  0.41106379  0.12483488    -0.15000
C794        C  0.76450325  0.43577532  0.09570681     0.37300
N795        N  0.77127132  0.49140518  0.09777927    -0.89200
H796        H  0.78051159  0.42472259  0.04251269     0.18500
H797        H  0.73667216  0.33748821  0.14531752     0.18400
N798        N  0.74638230  0.27025561  0.08931200    -0.88300
H799        H  0.78033283  0.50349714  0.07397359     0.35800
H800        H  0.78636170  0.49673536  0.11784233     0.40900
H801        H  0.73114487  0.26470433  0.06945733     0.40500
H802        H  0.73764789  0.25785031  0.11323632     0.35400
C803        C  0.76606063  0.44024060  0.40116501    -0.26300
C804        C  0.75456656  0.41386231  0.37104630    -0.14400
C805        C  0.75229081  0.35790268  0.37053388     0.36300
C806        C  0.76100423  0.32975490  0.40068275    -0.25800
C807        C  0.77137102  0.35668209  0.43127428    -0.15000
C808        C  0.77464002  0.41232559  0.43113485     0.37300
N809        N  0.78648681  0.44028828  0.46162713    -0.89200
H810        H  0.76832677  0.48305046  0.40136201     0.18500
H811        H  0.75862221  0.28699580  0.40094760     0.18400
N812        N  0.74022398  0.33015409  0.34013961    -0.88300
H813        H  0.78696316  0.48116558  0.45749540     0.35800
H814        H  0.80720569  0.42772352  0.46421985     0.40900
H815        H  0.71932414  0.34193749  0.33831063     0.40500
H816        H  0.74018303  0.28920109  0.34407663     0.35400
C817        C  0.57274555  0.97106008  0.03127436    -0.26300
C818        C  0.55357403  0.96769083  0.00285260    -0.14400
C819        C  0.56022665  0.93303871  0.47292525     0.36300
C820        C  0.58410875  0.90125723  0.47393058    -0.25800
C821        C  0.60234194  0.90441464  0.00194273    -0.15000
C822        C  0.59771208  0.94186222  0.03042281     0.37300
N823        N  0.61779422  0.95168360  0.05857100    -0.89200
H824        H  0.56848082  0.99741241  0.05403475     0.18500
H825        H  0.58755383  0.87289495  0.45204796     0.18400
N826        N  0.54279988  0.92930047  0.44149755    -0.88300
H827        H  0.62228275  0.99229503  0.05898831     0.35800
H828        H  0.63680045  0.93310978  0.05273317     0.40900
H829        H  0.52680001  0.95753869  0.44187771     0.40500
H830        H  0.53349648  0.89181899  0.44089460     0.35400
C831        C  0.65691205  0.67868644  0.09841274    -0.26300
C832        C  0.66682742  0.70603425  0.12917267    -0.14400
C833        C  0.66769863  0.76221007  0.12964130     0.36300
C834        C  0.66043028  0.78922592  0.09848191    -0.25800
C835        C  0.65185379  0.76139590  0.06732864    -0.15000
C836        C  0.64914875  0.70585352  0.06778471     0.37300
N837        N  0.63833094  0.67694825  0.03724952    -0.89200
H838        H  0.65535425  0.63573467  0.09799276     0.18500
H839        H  0.66217969  0.83210492  0.09814260     0.18400
N840        N  0.67710938  0.79152376  0.16093862    -0.88300
H841        H  0.65332378  0.64894839  0.02899203     0.35800
H842        H  0.62062097  0.65640106  0.04524266     0.40900
H843        H  0.66180385  0.78801681  0.18054124     0.40500
H844        H  0.67833110  0.83205534  0.15579925     0.35400
C845        C  0.64936133  0.77805665  0.40808518    -0.26300
C846        C  0.66824507  0.78249628  0.43693722    -0.14400
C847        C  0.69525246  0.76027174  0.43323155     0.36300
C848        C  0.70183413  0.73025002  0.40213811    -0.25800
C849        C  0.68234551  0.72351047  0.37422773    -0.15000
C850        C  0.65612993  0.74891261  0.37675570     0.37300
N851        N  0.63593402  0.74273597  0.34836713    -0.89200
H852        H  0.62856118  0.79468473  0.41075684     0.18500
H853        H  0.72218595  0.71152274  0.39976875     0.18400
N854        N  0.71573472  0.76777529  0.46113865    -0.88300
H855        H  0.61777416  0.76431767  0.35435599     0.35800
H856        H  0.63022153  0.70271175  0.34681210     0.40900
H857        H  0.72004526  0.80839919  0.46326982     0.40500
H858        H  0.73446110  0.74869399  0.45424834     0.35400
C859        C  0.90415805  0.79986179  0.48225449    -0.26300
C860        C  0.88296062  0.79544654  0.00819691    -0.14400
C861        C  0.88030668  0.83613785  0.03500643     0.36300
C862        C  0.89787162  0.88046681  0.03421995    -0.25800
C863        C  0.91585524  0.88814330  0.00538494    -0.15000
C864        C  0.91953122  0.84663365  0.47964261     0.37300
N865        N  0.93772005  0.85126925  0.44939920    -0.89200
H866        H  0.90759479  0.76834777  0.46242233     0.18500
H867        H  0.89596553  0.91151671  0.05474895     0.18400
N868        N  0.85884952  0.83428908  0.06168212    -0.88300
H869        H  0.95415478  0.82429248  0.45247821     0.35800
H870        H  0.94642594  0.88898201  0.44791603     0.40900
H871        H  0.83961165  0.83685837  0.04850814     0.40500
H872        H  0.85998820  0.86721280  0.07929641     0.35400
C873        C  0.83094099  0.64434703  0.09224647    -0.26300
C874        C  0.81671811  0.67010136  0.06476598    -0.14400
C875        C  0.78779433  0.67993422  0.06769189     0.36300
C876        C  0.77349190  0.66238958  0.09765975    -0.25800
C877        C  0.78756370  0.63602627  0.12499492    -0.15000
C878        C  0.81655771  0.62678773  0.12237202     0.37300
N879        N  0.83107521  0.59853065  0.14976215    -0.89200
H880        H  0.85315075  0.63697099  0.08975754     0.18500
H881        H  0.75126244  0.66988669  0.09993734     0.18400
N882        N  0.77315226  0.70807539  0.04029945    -0.88300
H883        H  0.85228977  0.59502913  0.14369522     0.35800
H884        H  0.82315420  0.55991518  0.14975290     0.40900
H885        H  0.78113636  0.74662640  0.04006389     0.40500
H886        H  0.75194711  0.71172772  0.04642298     0.35400
C887        C  0.81377888  0.71060999  0.40899169    -0.26300
C888        C  0.82343157  0.67241981  0.43291055    -0.14400
C889        C  0.82022131  0.61787973  0.42406382     0.36300
C890        C  0.80578913  0.60277913  0.39275871    -0.25800
C891        C  0.79518430  0.64093135  0.36973747    -0.15000
C892        C  0.79955989  0.69531467  0.37740188     0.37300
N893        N  0.78848659  0.73464974  0.35397463    -0.89200
H894        H  0.81606796  0.75245273  0.41585241     0.18500
H895        H  0.80233079  0.56102237  0.38652418     0.18400
N896        N  0.83125782  0.57812697  0.44720973    -0.88300
H897        H  0.79355577  0.77284851  0.36350030     0.35800
H898        H  0.76672252  0.73206738  0.35456700     0.40900
H899        H  0.85296240  0.58205483  0.44764164     0.40500
H900        H  0.82704124  0.54000434  0.43683751     0.35400
C901        C  0.86413170  0.74817786  0.50554274     0.03100
C902        C  0.85381180  0.73154555  0.97143611    -0.13000
C903        C  0.83448428  0.69012643  0.96803222     0.00600
C904        C  0.82330557  0.66866935  0.99893743    -0.11500
C905        C  0.83252179  0.68608254  0.53320152     0.03100
C906        C  0.85386685  0.72376422  0.53623447    -0.11000
H907        H  0.86095796  0.75029137  0.94745409     0.08700
H908        H  0.80693126  0.63919185  0.99667685     0.06300
H909        H  0.86133255  0.73578370  0.56259411     0.06100
C910        C  0.62568704  0.86413394  0.50403026     0.03100
C911        C  0.63941255  0.84850217  0.97184308    -0.13000
C912        C  0.65694419  0.80355510  0.97104138     0.00600
C913        C  0.66087333  0.77541771  0.00259117    -0.11500
C914        C  0.64852657  0.79188224  0.53491357     0.03100
C915        C  0.62986285  0.83476243  0.53498715    -0.11000
H916        H  0.63631994  0.87071250  0.94771851     0.08700
H917        H  0.67397237  0.74027029  0.00245682     0.06300
H918        H  0.61786231  0.84399018  0.55887939     0.06100
C919        C  0.80489443  0.26272614  0.49671485     0.03100
C920        C  0.79719992  0.28645257  0.96475135    -0.13000
C921        C  0.77725258  0.32712954  0.96411795     0.00600
C922        C  0.76431133  0.34394976  0.99593709    -0.11500
C923        C  0.77334704  0.32299753  0.52882917     0.03100
C924        C  0.79221934  0.28046560  0.52875909    -0.11000
H925        H  0.80808493  0.27530431  0.94031126     0.08700
H926        H  0.74940685  0.37648908  0.99559543     0.06300
H927        H  0.79831451  0.26356175  0.55395994     0.06100
N928        N  0.97631270  0.98285032  0.50143036    -0.36600
N929        N  0.50511801  0.08411920  0.49845941    -0.57200
N930        N  0.95199566  0.13729851  0.49381304    -0.36600
N931        N  0.92285593  0.03605860  0.49592054    -0.57200
C932        C  0.00263130  0.96685859  0.50890948     0.27000
C933        C  0.95926197  0.94160439  0.50816113     0.27000
C934        C  0.96912459  0.17803522  0.48616737     0.27000
C935        C  0.92578803  0.15286271  0.48546748     0.27000
C936        C  0.52774482  0.05258803  0.50207050     0.35600
C937        C  0.51452178  0.13454898  0.49847518     0.35600
C938        C  0.91320730  0.98594790  0.49789879     0.35600
C939        C  0.90026245  0.06821314  0.49480914     0.35600
C940        C  0.00232607  0.91485403  0.52017452    -0.21900
C941        C  0.97499807  0.89902620  0.51987245    -0.21900
C942        C  0.95361160  0.21981135  0.47292327    -0.21900
C943        C  0.92628922  0.20396646  0.47249900    -0.21900
C944        C  0.55169025  0.08315870  0.50429718    -0.22900
C945        C  0.54326553  0.13504589  0.50292299    -0.22900
C946        C  0.88424754  0.98636046  0.49698152    -0.22900
C947        C  0.87609955  0.03845009  0.49624489    -0.22900
C948        C  0.52714340  0.99674200  0.50429246    -0.18300
C949        C  0.92995235  0.94025399  0.50315645    -0.18300
C950        C  0.90106400  0.12376670  0.49089630    -0.18300
C951        C  0.49788681  0.17980892  0.49191831    -0.18300
H952        H  0.51986493  0.89004607  0.52602848     0.14600
H953        H  0.96759266  0.86038856  0.52739425     0.14600
H954        H  0.96117094  0.25795494  0.46460908     0.14600
H955        H  0.90871910  0.22751262  0.46368356     0.14600
H956        H  0.57305994  0.06992826  0.50714315     0.12900
H957        H  0.55698931  0.16900818  0.50431120     0.12900
H958        H  0.87018370  0.95298087  0.49765886     0.12900
H959        H  0.85472378  0.05238246  0.49615382     0.12900
H960        H  0.97082521  0.01754055  0.48878662     0.26200
H961        H  0.95727898  0.10374190  0.50793516     0.26200
C962        C  0.56273179  0.37279629  0.49405113     0.03100
C963        C  0.57240542  0.38844032  0.52836302    -0.13000
C964        C  0.59151842  0.42989186  0.53267620     0.00600
C965        C  0.60353339  0.45126957  0.00182484    -0.11500
C966        C  0.59432496  0.43543598  0.96762307     0.03100
C967        C  0.57311444  0.39757152  0.96390684    -0.11000
H968        H  0.56600622  0.36713564  0.55171527     0.08700
H969        H  0.61975563  0.48095018  0.00488097     0.06300
H970        H  0.56551923  0.38657319  0.93741209     0.06100
O971        O  0.78416090  0.63119443  0.80782145    -0.75300
O972        O  0.75542143  0.59616793  0.84950600    -0.54200
C973        C  0.77738199  0.62111927  0.84021065     0.78400
O974        O  0.67577314  0.69166266  0.69144208    -0.59900
O975        O  0.68944961  0.62859403  0.65030221    -0.52900
C976        C  0.67819213  0.67339670  0.65910834     0.70500
O977        O  0.68330733  0.69958329  0.81210409    -0.74400
O978        O  0.70083117  0.64093331  0.85197398    -0.55000
C979        C  0.68948982  0.68543751  0.84402605     0.76500
O980        O  0.78206918  0.62000347  0.68677266    -0.59600
O981        O  0.74751906  0.59464428  0.64782532    -0.52700
C982        C  0.77170473  0.61395995  0.65508518     0.73100
Zr983      Zr  0.76632277  0.60785884  0.74799411     2.54700
O984        O  0.78314045  0.69868946  0.74588735    -0.80100
O985        O  0.81371168  0.57240023  0.74715613    -0.93600
Zr986      Zr  0.68793389  0.66271814  0.75138386     2.64700
O987        O  0.70679503  0.75217027  0.74904041    -0.98500
O988        O  0.64051778  0.69758840  0.75470079    -0.80600
O989        O  0.72838253  0.63771190  0.78380141    -0.83900
O990        O  0.72632707  0.63545406  0.71554066    -2.18600
O991        O  0.74684865  0.42578178  0.68766377    -0.67300
O992        O  0.73056016  0.48664703  0.64847400    -0.51900
C993        C  0.74277729  0.44289899  0.65587911     0.71400
O994        O  0.64546723  0.49717877  0.81344448    -0.60200
O995        O  0.67785346  0.53002467  0.85298874    -0.52200
C996        C  0.65477546  0.50654814  0.84531789     0.73200
O997        O  0.64077866  0.49462330  0.69225445    -0.71600
O998        O  0.67238593  0.51945489  0.65041383    -0.50300
C999        C  0.64910822  0.49928929  0.65979587     0.74600
O1000       O  0.74754819  0.42701815  0.80876822    -0.67000
O1001       O  0.73444070  0.49075576  0.84988610    -0.54200
C1002       C  0.74499201  0.44531374  0.84107806     0.73000
Zr1003     Zr  0.73786215  0.45866235  0.74883341     2.77500
O1004       O  0.71929661  0.36877793  0.74859240    -0.97700
O1005       O  0.78546784  0.42464766  0.74918519    -0.78500
Zr1006     Zr  0.65955295  0.51395161  0.75225704     2.70100
O1007       O  0.64072098  0.42437311  0.75267338    -0.79800
O1008       O  0.61274383  0.55178887  0.75529950    -0.98900
Zr1009     Zr  0.71515795  0.56338577  0.81726087     2.21500
Zr1010     Zr  0.71080204  0.55846609  0.68330399     2.13100
O1011       O  0.69744247  0.48353136  0.71643920    -2.47500
O1012       O  0.69954289  0.48649708  0.78485505    -0.79600
O1013       O  0.75166813  0.53164311  0.71427218    -0.71800
O1014       O  0.67409845  0.59008707  0.78627063    -2.32700
O1015       O  0.75390577  0.53400842  0.78244888    -2.28900
O1016       O  0.67187707  0.58761492  0.71763262    -0.73500
H1017       H  0.73114709  0.66341131  0.69960797     0.78500
H1018       H  0.65962192  0.60120078  0.80280484     0.79600
H1019       H  0.69171330  0.45421975  0.70081624     0.81800
H1020       H  0.76944185  0.52415153  0.79748260     0.79400
H1021       H  0.63057048  0.67308365  0.77043550     0.42400
H1022       H  0.61310010  0.58163400  0.73863506     0.41400
H1023       H  0.65735995  0.40093668  0.75168677     0.41100
H1024       H  0.70808015  0.36549032  0.72632950     0.39000
H1025       H  0.79677105  0.45445111  0.75905414     0.42100
H1026       H  0.81628149  0.55610396  0.77073807     0.36900
H1027       H  0.76988539  0.71950590  0.76098321     0.43000
H1028       H  0.71835873  0.75203928  0.72717110     0.39500
H1029       H  0.73574022  0.34561892  0.74412312     0.44400
H1030       H  0.82577560  0.60424977  0.74819953     0.43100
H1031       H  0.69051369  0.77479466  0.74327546     0.43200
H1032       H  0.60070030  0.52482719  0.74324598     0.43600
C1033       C  0.59613716  0.49185249  0.58462868    -0.26300
C1034       C  0.60365766  0.44330176  0.56801433    -0.14400
C1035       C  0.62461580  0.41136690  0.58360075     0.36300
C1036       C  0.63798745  0.42976116  0.61485993    -0.25800
C1037       C  0.63110944  0.47908010  0.63076658    -0.15000
C1038       C  0.60971297  0.51040297  0.61576475     0.37300
N1039       N  0.60177796  0.56154882  0.63062708    -0.89200
H1040       H  0.58021370  0.51641519  0.57256299     0.18500
H1041       H  0.65475419  0.40625240  0.62605138     0.18400
N1042       N  0.63400674  0.36181211  0.56764573    -0.88300
H1043       H  0.60676539  0.59003174  0.61188901     0.35800
H1044       H  0.61299462  0.57123834  0.65388286     0.40900
H1045       H  0.62382954  0.35268542  0.54355941     0.40500
H1046       H  0.62909509  0.33173248  0.58524884     0.35400
C1047       C  0.59478593  0.47472730  0.90714304    -0.26300
C1048       C  0.60947279  0.45331217  0.93593818    -0.14400
C1049       C  0.63868774  0.44743371  0.93396361     0.36300
C1050       C  0.65287274  0.46554228  0.90423548    -0.25800
C1051       C  0.63837272  0.48767321  0.87556737    -0.15000
C1052       C  0.60893912  0.49154093  0.87663901     0.37300
N1053       N  0.59363979  0.51407405  0.84750838    -0.89200
H1054       H  0.57228142  0.47848786  0.90857167     0.18500
H1055       H  0.67538569  0.46119554  0.90324273     0.18400
N1056       N  0.65394583  0.42156744  0.96165258    -0.88300
H1057       H  0.57249095  0.51776954  0.85392139     0.35800
H1058       H  0.59460842  0.48699168  0.82585471     0.40900
H1059       H  0.66897142  0.44798183  0.97183164     0.40500
H1060       H  0.66432088  0.38872499  0.95020246     0.35400
C1061       C  0.53052674  0.24000925  0.96391564    -0.26300
C1062       C  0.51193890  0.23224830  0.49045601    -0.14400
C1063       C  0.00797101  0.27262833  0.51757217     0.36300
C1064       C  0.52262460  0.31990204  0.51524472    -0.25800
C1065       C  0.54392777  0.32611209  0.49001821    -0.15000
C1066       C  0.54781811  0.28475104  0.96388652     0.37300
N1067       N  0.57023117  0.28711389  0.93854206    -0.89200
H1068       H  0.53341459  0.20862707  0.94381495     0.18500
H1069       H  0.51874386  0.35087134  0.53533980     0.18400
N1070       N  0.98918317  0.26674555  0.54707724    -0.88300
H1071       H  0.57007194  0.25386965  0.92114520     0.35800
H1072       H  0.58899093  0.28551258  0.95289023     0.40900
H1073       H  0.98030424  0.22907823  0.54746065     0.40500
H1074       H  0.97289890  0.29406445  0.54405176     0.35400
C1075       C  0.82995004  0.18473131  0.97089485    -0.26300
C1076       C  0.82837159  0.22400540  0.49726180    -0.14400
C1077       C  0.85011214  0.22856485  0.52297666     0.36300
C1078       C  0.87238847  0.19251132  0.52150778    -0.25800
C1079       C  0.87471210  0.15480079  0.49345240    -0.15000
C1080       C  0.85332761  0.15106923  0.96836988     0.37300
N1081       N  0.85627472  0.11409805  0.93861485    -0.89200
H1082       H  0.81358746  0.18122666  0.95087405     0.18500
H1083       H  0.88903985  0.19579007  0.54118564     0.18400
N1084       N  0.85039856  0.27137316  0.54927230    -0.88300
H1085       H  0.83906450  0.11644270  0.92141379     0.35800
H1086       H  0.87367753  0.12548631  0.92397939     0.40900
H1087       H  0.85231901  0.30684177  0.53562789     0.40500
H1088       H  0.86788603  0.26875282  0.56600303     0.35400
C1089       C  0.77228353  0.40595269  0.56536035    -0.26300
C1090       C  0.76618679  0.35157603  0.56258885    -0.14400
C1091       C  0.75416421  0.32602525  0.59180008     0.36300
C1092       C  0.74779179  0.35599956  0.62306676    -0.25800
C1093       C  0.75288764  0.41084602  0.62509109    -0.15000
C1094       C  0.76581261  0.43586874  0.59625520     0.37300
N1095       N  0.77227702  0.49163063  0.59849542    -0.89200
H1096       H  0.78225702  0.42515902  0.54322793     0.18500
H1097       H  0.73780006  0.33707022  0.64527973     0.18400
N1098       N  0.74786476  0.27031924  0.58921986    -0.88300
H1099       H  0.78151732  0.50394735  0.57485957     0.35800
H1100       H  0.78712524  0.49722496  0.61882595     0.40900
H1101       H  0.73273423  0.26496619  0.56920842     0.40500
H1102       H  0.73898689  0.25772362  0.61300699     0.35400
C1103       C  0.76673705  0.43960001  0.90076701    -0.26300
C1104       C  0.75539551  0.41294280  0.87065118    -0.14400
C1105       C  0.75353861  0.35692637  0.87004917     0.36300
C1106       C  0.76204271  0.32907258  0.90036691    -0.25800
C1107       C  0.77185551  0.35633358  0.93110833    -0.15000
C1108       C  0.77515118  0.41192363  0.93088559     0.37300
N1109       N  0.78678123  0.44004122  0.96145537    -0.89200
H1110       H  0.76888354  0.48243517  0.90090689     0.18500
H1111       H  0.75986216  0.28627269  0.90066093     0.18400
N1112       N  0.74209165  0.32879567  0.83940930    -0.88300
H1113       H  0.78746972  0.48085723  0.95711573     0.35800
H1114       H  0.80743400  0.42727514  0.96443289     0.40900
H1115       H  0.72110122  0.33979948  0.83718977     0.40500
H1116       H  0.74242300  0.28783053  0.84330144     0.35400
C1117       C  0.57278240  0.97078448  0.53140109    -0.26300
C1118       C  0.55397316  0.96703273  0.50256989    -0.14400
C1119       C  0.55943994  0.93406842  0.97286771     0.36300
C1120       C  0.58329829  0.90207523  0.97322756    -0.25800
C1121       C  0.60294828  0.90436378  0.50284162    -0.15000
C1122       C  0.59788414  0.94195756  0.53110838     0.37300
N1123       N  0.61768723  0.95247950  0.55948035    -0.89200
H1124       H  0.56818197  0.99730219  0.55396536     0.18500
H1125       H  0.58648942  0.87398116  0.95112392     0.18400
N1126       N  0.54163510  0.93091528  0.94176616    -0.88300
H1127       H  0.62197047  0.99317087  0.55974044     0.35800
H1128       H  0.63683157  0.93419953  0.55400356     0.40900
H1129       H  0.52558340  0.95903633  0.94277583     0.40500
H1130       H  0.53238423  0.89338635  0.94097995     0.35400
C1131       C  0.65779637  0.67868246  0.59839824    -0.26300
C1132       C  0.66748193  0.70552536  0.62945636    -0.14400
C1133       C  0.66854535  0.76169685  0.63030572     0.36300
C1134       C  0.66153075  0.78923565  0.59928665    -0.25800
C1135       C  0.65320162  0.76190466  0.56783546    -0.15000
C1136       C  0.65046946  0.70633201  0.56782547     0.37300
N1137       N  0.64013687  0.67784925  0.53683821    -0.89200
H1138       H  0.65618990  0.63573467  0.59764679     0.18500
H1139       H  0.66332665  0.83212478  0.59928121     0.18400
N1140       N  0.67797382  0.79046219  0.66182074    -0.88300
H1141       H  0.65529660  0.65007489  0.52874876     0.35800
H1142       H  0.62234754  0.65704164  0.54424597     0.40900
H1143       H  0.66252165  0.78713480  0.68125008     0.40500
H1144       H  0.67951938  0.83101596  0.65689197     0.35400
C1145       C  0.64964830  0.77837854  0.90679021    -0.26300
C1146       C  0.66779636  0.78135802  0.93646643    -0.14400
C1147       C  0.69460636  0.75790281  0.93367495     0.36300
C1148       C  0.70151015  0.72779120  0.90276083    -0.25800
C1149       C  0.68263644  0.72230456  0.87408414    -0.15000
C1150       C  0.65681998  0.74935237  0.87557523     0.37300
N1151       N  0.63736811  0.74501915  0.84621641    -0.89200
H1152       H  0.62903376  0.79602986  0.90865665     0.18500
H1153       H  0.72163984  0.70804958  0.90112213     0.18400
N1154       N  0.71456964  0.76425078  0.96230887    -0.88300
H1155       H  0.61950374  0.76788535  0.85145021     0.35800
H1156       H  0.63086637  0.70547407  0.84413376     0.40900
H1157       H  0.71937176  0.80464211  0.96474435     0.40500
H1158       H  0.73318687  0.74432930  0.95603471     0.35400
C1159       C  0.90330970  0.80088892  0.98153808    -0.26300
C1160       C  0.88338342  0.79453016  0.50835075    -0.14400
C1161       C  0.87975496  0.83591266  0.53443057     0.36300
C1162       C  0.89706152  0.88064292  0.53382074    -0.25800
C1163       C  0.91569734  0.88801190  0.50560569    -0.15000
C1164       C  0.91894830  0.84729063  0.97891646     0.37300
N1165       N  0.93668934  0.85204877  0.94824792    -0.89200
H1166       H  0.90628756  0.76972758  0.96134027     0.18500
H1167       H  0.89448413  0.91211349  0.55392744     0.18400
N1168       N  0.85752287  0.83425363  0.56006424    -0.88300
H1169       H  0.95294563  0.82450342  0.95062645     0.35800
H1170       H  0.94568216  0.88953071  0.94690735     0.40900
H1171       H  0.83867394  0.83569032  0.54589913     0.40500
H1172       H  0.85784338  0.86784016  0.57714992     0.35400
C1173       C  0.83174653  0.64439227  0.59295197    -0.26300
C1174       C  0.81733133  0.66895266  0.56510964    -0.14400
C1175       C  0.78817409  0.67637373  0.56738381     0.36300
C1176       C  0.77387797  0.65739294  0.59689041    -0.25800
C1177       C  0.78812014  0.63224507  0.62460880    -0.15000
C1178       C  0.81735870  0.62558871  0.62273599     0.37300
N1179       N  0.83216706  0.59876612  0.65053958    -0.89200
H1180       H  0.85412696  0.63881448  0.59098834     0.18500
H1181       H  0.75148591  0.66318356  0.59860155     0.18400
N1182       N  0.77326254  0.70369974  0.53983591    -0.88300
H1183       H  0.85353382  0.59727830  0.64505545     0.35800
H1184       H  0.82525114  0.55944267  0.65035663     0.40900
H1185       H  0.78038795  0.74288013  0.54000839     0.40500
H1186       H  0.75191816  0.70553253  0.54545551     0.35400
C1187       C  0.81395360  0.70986604  0.90839393    -0.26300
C1188       C  0.82389124  0.67212327  0.93242886    -0.14400
C1189       C  0.82154891  0.61747216  0.92345364     0.36300
C1190       C  0.80708521  0.60170820  0.89227102    -0.25800
C1191       C  0.79586125  0.63943883  0.86936275    -0.15000
C1192       C  0.79995023  0.69397307  0.87678877     0.37300
N1193       N  0.78878828  0.73286910  0.85310010    -0.89200
H1194       H  0.81581166  0.75180888  0.91518910     0.18500
H1195       H  0.80410038  0.55981038  0.88605605     0.18400
N1196       N  0.83350402  0.57831784  0.94633704    -0.88300
H1197       H  0.79373376  0.77124143  0.86239843     0.35800
H1198       H  0.76703312  0.73004586  0.85364346     0.40900
H1199       H  0.85512867  0.58362113  0.94642553     0.40500
H1200       H  0.82986096  0.53999942  0.93591001     0.35400
loop_ 
_geom_bond_atom_site_label_1 
_geom_bond_atom_site_label_2 
_geom_bond_distance 
_geom_bond_site_symmetry_2 
_ccdc_geom_bond_type 
C1            C6   1.409       .  A
C1          C302   1.410   1_554  A
C1          C260   1.493       .  S
C2            C3   1.402       .  A
C2          C301   1.412       .  A
C2            H7   1.083       .  S
C3            C4   1.399       .  A
C3          C288   1.483       .  S
C4          C305   1.398       .  A
C4            H8   1.084       .  S
C5            C6   1.401       .  A
C5          C304   1.398   1_554  A
C5          C274   1.477       .  S
C6            H9   1.082       .  S
C10          C15   1.403       .  A
C10         C311   1.406   1_554  A
C10         C221   1.485       .  S
C11          C12   1.405       .  A
C11         C310   1.405       .  A
C11          H16   1.084       .  S
C12          C13   1.403       .  A
C12         C246   1.486       .  S
C13         C314   1.400       .  A
C13          H17   1.083       .  S
C14          C15   1.397       .  A
C14         C313   1.401       .  A
C14         C235   1.477       .  S
C15          H18   1.084       .  S
C19          C24   1.407   1_556  A
C19         C320   1.407       .  A
C19         C176   1.483       .  S
C20          C21   1.399       .  A
C20         C319   1.408       .  A
C20          H25   1.084       .  S
C21          C22   1.399       .  A
C21         C207   1.478       .  S
C22         C323   1.400       .  A
C22          H26   1.085       .  S
C23          C24   1.399       .  A
C23         C322   1.399   1_554  A
C23         C190   1.477       .  S
C24          H27   1.083       .  S
N28          C33   1.354       .  A
N28          C32   1.353       .  A
N28          H60   1.037   1_564  S
N29          C36   1.349   1_556  A
N29          C37   1.349       .  A
N30          C35   1.352       .  A
N30          C34   1.354       .  A
N30          H61   1.038   1_556  S
N31          C38   1.350   1_545  A
N31          C39   1.350       .  A
C32          C40   1.386       .  A
C32         C648   1.415       .  A
C33          C49   1.416       .  A
C33          C41   1.388       .  A
C34          C42   1.387       .  A
C34         C651   1.413       .  A
C35          C50   1.414       .  A
C35          C43   1.388       .  A
C36          C48   1.411   1_545  A
C36          C44   1.386       .  A
C37          C51   1.413   1_455  A
C37          C45   1.387   1_556  A
C38          C46   1.388       .  A
C38          C49   1.417   1_556  A
C39          C47   1.385       .  A
C39          C50   1.412       .  A
C40          C41   1.371       .  A
C40         H652   1.082       .  S
C41          H53   1.082       .  S
C42          C43   1.370       .  A
C42          H54   1.082       .  S
C43          H55   1.083       .  S
C44          C45   1.367       .  A
C44          H56   1.081       .  S
C45          H57   1.082       .  S
C46          C47   1.368   1_565  A
C46          H58   1.081       .  S
C47          H59   1.081       .  S
C48         C632   1.415       .  A
C48         C218   1.483       .  S
C49         C263   1.488       .  S
C50         C179   1.485       .  S
C51         C634   1.413       .  A
C51         C162   1.486   1_655  S
H52         C640   1.082       .  S
C62          C63   1.408   1_556  A
C62         C367   1.407       .  A
C62         C165   1.488       .  S
C63          C64   1.397       .  A
C63          H68   1.084       .  S
C64         C365   1.394       .  A
C64         C134   1.469       .  S
C65          C66   1.401       .  A
C65         C364   1.395       .  A
C65          H69   1.084       .  S
C66          C67   1.404       .  A
C66         C148   1.480       .  S
C67         C362   1.407       .  A
C67          H70   1.082       .  S
O71         Zr83   2.447       .  S
O71          C73   1.288       .  A
O72        Zr109   2.408       .  S
O72          C73   1.283       .  A
C73         C291   1.468       .  S
O74         Zr86   2.445       .  S
O74          C76   1.287       .  A
O75        Zr110   2.402       .  S
O75          C76   1.283       .  A
C76         C232   1.480       .  S
O77         Zr86   2.441       .  S
O77          C79   1.288       .  A
O78        Zr109   2.409       .  S
O78          C79   1.284       .  A
C79         C249   1.472       .  S
O80         Zr83   2.441       .  S
O80          C82   1.287       .  A
O81        Zr110   2.411       .  S
O81          C82   1.284       .  A
C82         C277   1.474       .  S
Zr83         O84   2.433       .  S
Zr83         O85   2.434       .  S
Zr83         O89   2.370       .  S
Zr83         O90   2.375       .  S
Zr83        O113   2.373       .  S
Zr83        O115   2.371       .  S
O84         H127   0.990       .  S
O85         H126   0.989       .  S
O85         H130   0.991       .  S
Zr86         O87   2.435       .  S
Zr86         O88   2.436       .  S
Zr86         O90   2.369       .  S
Zr86         O89   2.372       .  S
Zr86        O114   2.374       .  S
Zr86        O116   2.374       .  S
O87         H128   0.990       .  S
O87         H131   0.990       .  S
O88         H121   0.990       .  S
O89        Zr109   2.370       .  S
O90        Zr110   2.374       .  S
O90         H117   0.964       .  S
O91        Zr103   2.455       .  S
O91          C93   1.289       .  A
O92        Zr110   2.394       .  S
O92          C93   1.282       .  A
C93         C193   1.472       .  S
O94        Zr106   2.441       .  S
O94          C96   1.287       .  A
O95        Zr109   2.408       .  S
O95          C96   1.285       .  A
C96         C151   1.478       .  S
O97        Zr106   2.448       .  S
O97          C99   1.288       .  A
O98        Zr110   2.403       .  S
O98          C99   1.282       .  A
C99         C137   1.461       .  S
O100       Zr103   2.447       .  S
O100        C102   1.288       .  A
O101       Zr109   2.405       .  S
O101        C102   1.284       .  A
C102        C204   1.478       .  S
Zr103       O104   2.436       .  S
Zr103       O105   2.434       .  S
Zr103       O111   2.370       .  S
Zr103       O112   2.377       .  S
Zr103       O115   2.376       .  S
Zr103       O113   2.376       .  S
O104        H124   0.990       .  S
O104        H129   0.990       .  S
O105        H125   0.990       .  S
Zr106       O107   2.434       .  S
Zr106       O108   2.435       .  S
Zr106       O112   2.377       .  S
Zr106       O111   2.375       .  S
Zr106       O116   2.372       .  S
Zr106       O114   2.375       .  S
O107        H123   0.990       .  S
O108        H122   0.990       .  S
O108        H132   0.991       .  S
Zr109       O112   2.378       .  S
Zr109       O114   2.380       .  S
Zr109       O115   2.376       .  S
Zr110       O111   2.379       .  S
Zr110       O113   2.373       .  S
Zr110       O116   2.372       .  S
O111        H119   0.968       .  S
O114        H118   0.967       .  S
O115        H120   0.966       .  S
C133        C134   1.402       .  A
C133        C138   1.398       .  A
C133        H140   1.084       .  S
C134        C135   1.416       .  A
C135        C136   1.398       .  A
C135        N142   1.439       .  S
C136        C137   1.401       .  A
C136        H141   1.085       .  S
C137        C138   1.413       .  A
C138        N139   1.439       .  S
N139        H143   1.045       .  S
N139        H144   1.044       .  S
N142        H145   1.042       .  S
N142        H146   1.045       .  S
C147        C148   1.403       .  A
C147        C152   1.408       .  A
C147        H154   1.084       .  S
C148        C149   1.410       .  A
C149        C150   1.395       .  A
C149        N156   1.434       .  S
C150        C151   1.403       .  A
C150        H155   1.084       .  S
C151        C152   1.416       .  A
C152        N153   1.438       .  S
N153        H157   1.046       .  S
N153        H158   1.045       .  S
N156        H159   1.046       .  S
N156        H160   1.045       .  S
C161        C166   1.404       .  A
C161        C462   1.403       .  A
C161        H168   1.084       .  S
C162        C461   1.403       .  A
C162        C763   1.415   1_556  A
C163        C762   1.415   1_554  A
C163        C764   1.396       .  A
C163        N170   1.439       .  S
C164        C165   1.406   1_554  A
C164        C763   1.396       .  A
C164        H169   1.084       .  S
C165        C466   1.417       .  A
C166        C465   1.417       .  A
C166        N167   1.438       .  S
N167        H171   1.046       .  S
N167        H172   1.046       .  S
N170        H173   1.042       .  S
N170        H174   1.045       .  S
C175        C180   1.404       .  A
C175        C476   1.406       .  A
C175        H182   1.083       .  S
C176        C177   1.415   1_556  A
C176        C475   1.406       .  A
C177        C178   1.399       .  A
C177        N184   1.439       .  S
C178        C179   1.401   1_554  A
C178        H183   1.084       .  S
C179        C480   1.409       .  A
C180        C479   1.408       .  A
C180        N181   1.437       .  S
N181        H185   1.046       .  S
N181        H186   1.045       .  S
N184        H187   1.046       .  S
N184        H188   1.046       .  S
C189        C190   1.402       .  A
C189        C194   1.396       .  A
C189        H196   1.084       .  S
C190        C191   1.410       .  A
C191        C192   1.409       .  A
C191        N198   1.437       .  S
C192        C193   1.404       .  A
C192        H197   1.084       .  S
C193        C194   1.411       .  A
C194        N195   1.439       .  S
N195        H199   1.046       .  S
N195        H200   1.045       .  S
N198        H201   1.046       .  S
N198        H202   1.046       .  S
C203        C204   1.404       .  A
C203        C208   1.398       .  A
C203        H210   1.084       .  S
C204        C205   1.414       .  A
C205        C206   1.408       .  A
C205        N212   1.438       .  S
C206        C207   1.403       .  A
C206        H211   1.084       .  S
C207        C208   1.410       .  A
C208        N209   1.439       .  S
N209        H213   1.046       .  S
N209        H214   1.045       .  S
N212        H215   1.046       .  S
N212        H216   1.046       .  S
C217        C218   1.402       .  A
C217        C222   1.400       .  A
C217        H224   1.084       .  S
C218        C519   1.414   1_554  A
C219        C220   1.394       .  A
C219        C518   1.414       .  A
C219        N226   1.439       .  S
C220        C521   1.405       .  A
C220        H225   1.084       .  S
C221        C222   1.420       .  A
C221        C520   1.406   1_554  A
C222        N223   1.439       .  S
N223        H227   1.046       .  S
N223        H228   1.043       .  S
N226        H229   1.043       .  S
N226        H230   1.046       .  S
C231        C232   1.405       .  A
C231        C236   1.396       .  A
C231        H238   1.084       .  S
C232        C233   1.415       .  A
C233        C234   1.406       .  A
C233        N240   1.438       .  S
C234        C235   1.403       .  A
C234        H239   1.084       .  S
C235        C236   1.405       .  A
C236        N237   1.433       .  S
N237        H241   1.046       .  S
N237        H242   1.045       .  S
N240        H243   1.045       .  S
N240        H244   1.046       .  S
C245        C246   1.406       .  A
C245        C250   1.401       .  A
C245        H252   1.083       .  S
C246        C247   1.414       .  A
C247        C248   1.404       .  A
C247        N254   1.438       .  S
C248        C249   1.403       .  A
C248        H253   1.084       .  S
C249        C250   1.408       .  A
C250        N251   1.438       .  S
N251        H255   1.046       .  S
N251        H256   1.046       .  S
N254        H257   1.045       .  S
N254        H258   1.046       .  S
C259        C264   1.398       .  A
C259        C560   1.406       .  A
C259        H266   1.083       .  S
C260        C261   1.418       .  A
C260        C559   1.408   1_554  A
C261        C262   1.402       .  A
C261        N268   1.438       .  S
C262        C263   1.402       .  A
C262        H267   1.084       .  S
C263        C564   1.415   1_554  A
C264        C563   1.416       .  A
C264        N265   1.439       .  S
N265        H269   1.046       .  S
N265        H270   1.042       .  S
N268        H271   1.046       .  S
N268        H272   1.046       .  S
C273        C274   1.402       .  A
C273        C278   1.407       .  A
C273        H280   1.084       .  S
C274        C275   1.412       .  A
C275        C276   1.400       .  A
C275        N282   1.439       .  S
C276        C277   1.402       .  A
C276        H281   1.084       .  S
C277        C278   1.412       .  A
C278        N279   1.438       .  S
N279        H283   1.046       .  S
N279        H284   1.046       .  S
N282        H285   1.046       .  S
N282        H286   1.046       .  S
C287        C288   1.406       .  A
C287        C292   1.407       .  A
C287        H294   1.083       .  S
C288        C289   1.412       .  A
C289        C290   1.402       .  A
C289        N296   1.438       .  S
C290        C291   1.400       .  A
C290        H295   1.084       .  S
C291        C292   1.408       .  A
C292        N293   1.438       .  S
N293        H297   1.046       .  S
N293        H298   1.046       .  S
N296        H299   1.045       .  S
N296        H300   1.046       .  S
C301        C306   1.408       .  A
C301        C560   1.494       .  S
C302        C303   1.400       .  A
C302        H307   1.083       .  S
C303        C304   1.398       .  A
C303        C588   1.481       .  S
C304        H308   1.084       .  S
C305        C306   1.401       .  A
C305        C574   1.477       .  S
C306        H309   1.082       .  S
C310        C315   1.403       .  A
C310        C521   1.483       .  S
C311        C312   1.405       .  A
C311        H316   1.083       .  S
C312        C313   1.404   1_556  A
C312        C546   1.489       .  S
C313        H317   1.082       .  S
C314        C315   1.397       .  A
C314        C535   1.475       .  S
C315        H318   1.084       .  S
C319        C324   1.407       .  A
C319        C476   1.484       .  S
C320        C321   1.399       .  A
C320        H325   1.084       .  S
C321        C322   1.398       .  A
C321        C507   1.476       .  S
C322        H326   1.085       .  S
C323        C324   1.399       .  A
C323        C490   1.478       .  S
C324        H327   1.083       .  S
N328        C333   1.355       .  A
N328        C332   1.353       .  A
N328        H360   1.036   1_565  S
N329        C336   1.349       .  A
N329        C337   1.350       .  A
N330        C335   1.351       .  A
N330        C334   1.354       .  A
N330        H361   1.038       .  S
N331        C338   1.350   1_545  A
N331        C339   1.351       .  A
C332        C340   1.387       .  A
C332        C948   1.416       .  A
C333        C349   1.418       .  A
C333        C341   1.388       .  A
C334        C342   1.386       .  A
C334        C951   1.413       .  A
C335        C350   1.414       .  A
C335        C343   1.388       .  A
C336        C348   1.411   1_545  A
C336        C344   1.386       .  A
C337        C351   1.414   1_455  A
C337        C345   1.387       .  A
C338        C346   1.389       .  A
C338        C349   1.419       .  A
C339        C347   1.384       .  A
C339        C350   1.412       .  A
C340        C341   1.370       .  A
C340        H952   1.082       .  S
C341        H353   1.082       .  S
C342        C343   1.370       .  A
C342        H354   1.082       .  S
C343        H355   1.083       .  S
C344        C345   1.368       .  A
C344        H356   1.081       .  S
C345        H357   1.081       .  S
C346        C347   1.369   1_565  A
C346        H358   1.081       .  S
C347        H359   1.081       .  S
C348        C932   1.415       .  A
C348        C518   1.483       .  S
C349        C563   1.492       .  S
C350        C479   1.485       .  S
C351        C934   1.414       .  A
C351        C462   1.489   1_655  S
H352        C940   1.082       .  S
C362        C363   1.409       .  A
C362        C465   1.490       .  S
C363        C364   1.397       .  A
C363        H368   1.084       .  S
C364        C434   1.471       .  S
C365        C366   1.398   1_554  A
C365        H369   1.085       .  S
C366        C367   1.402       .  A
C366        C448   1.475       .  S
C367        H370   1.082       .  S
O371       Zr383   2.449       .  S
O371        C373   1.288       .  A
O372       Zr409   2.403       .  S
O372        C373   1.282       .  A
C373        C591   1.466       .  S
O374       Zr386   2.449       .  S
O374        C376   1.288       .  A
O375       Zr410   2.402       .  S
O375        C376   1.283       .  A
C376        C532   1.480       .  S
O377       Zr386   2.441       .  S
O377        C379   1.288       .  A
O378       Zr409   2.413       .  S
O378        C379   1.285       .  A
C379        C549   1.475       .  S
O380       Zr383   2.444       .  S
O380        C382   1.288       .  A
O381       Zr410   2.404       .  S
O381        C382   1.283       .  A
C382        C577   1.473       .  S
Zr383       O384   2.432       .  S
Zr383       O385   2.435       .  S
Zr383       O389   2.370       .  S
Zr383       O390   2.374       .  S
Zr383       O413   2.374       .  S
Zr383       O415   2.373       .  S
O384        H427   0.990       .  S
O385        H426   0.989       .  S
O385        H430   0.991       .  S
Zr386       O387   2.436       .  S
Zr386       O388   2.436       .  S
Zr386       O390   2.368       .  S
Zr386       O389   2.373       .  S
Zr386       O414   2.375       .  S
Zr386       O416   2.374       .  S
O387        H428   0.990       .  S
O387        H431   0.990       .  S
O388        H421   0.990       .  S
O389       Zr409   2.370       .  S
O390       Zr410   2.376       .  S
O390        H417   0.964       .  S
O391       Zr403   2.449       .  S
O391        C393   1.288       .  A
O392       Zr410   2.395       .  S
O392        C393   1.282       .  A
C393        C493   1.471       .  S
O394       Zr406   2.436       .  S
O394        C396   1.286       .  A
O395       Zr409   2.408       .  S
O395        C396   1.284       .  A
C396        C451   1.472       .  S
O397       Zr406   2.448       .  S
O397        C399   1.288       .  A
O398       Zr410   2.408       .  S
O398        C399   1.283       .  A
C399        C437   1.465       .  S
O400       Zr403   2.440       .  S
O400        C402   1.287       .  A
O401       Zr409   2.406       .  S
O401        C402   1.284       .  A
C402        C504   1.476       .  S
Zr403       O404   2.435       .  S
Zr403       O405   2.433       .  S
Zr403       O411   2.370       .  S
Zr403       O412   2.375       .  S
Zr403       O415   2.375       .  S
Zr403       O413   2.374       .  S
O404        H424   0.990       .  S
O404        H429   0.990       .  S
O405        H425   0.989       .  S
Zr406       O407   2.434       .  S
Zr406       O408   2.435       .  S
Zr406       O412   2.378       .  S
Zr406       O411   2.374       .  S
Zr406       O416   2.370       .  S
Zr406       O414   2.375       .  S
O407        H423   0.990       .  S
O408        H422   0.990       .  S
O408        H432   0.991       .  S
Zr409       O412   2.377       .  S
Zr409       O414   2.379       .  S
Zr409       O415   2.377       .  S
Zr410       O411   2.377       .  S
Zr410       O413   2.376       .  S
Zr410       O416   2.371       .  S
O411        H419   0.968       .  S
O414        H418   0.967       .  S
O415        H420   0.966       .  S
C433        C434   1.402       .  A
C433        C438   1.401       .  A
C433        H440   1.084       .  S
C434        C435   1.416       .  A
C435        C436   1.398       .  A
C435        N442   1.439       .  S
C436        C437   1.401       .  A
C436        H441   1.085       .  S
C437        C438   1.414       .  A
C438        N439   1.439       .  S
N439        H443   1.046       .  S
N439        H444   1.043       .  S
N442        H445   1.042       .  S
N442        H446   1.046       .  S
C447        C448   1.402       .  A
C447        C452   1.406       .  A
C447        H454   1.084       .  S
C448        C449   1.409       .  A
C449        C450   1.395       .  A
C449        N456   1.434       .  S
C450        C451   1.402       .  A
C450        H455   1.085       .  S
C451        C452   1.414       .  A
C452        N453   1.438       .  S
N453        H457   1.046       .  S
N453        H458   1.045       .  S
N456        H459   1.046       .  S
N456        H460   1.045       .  S
C461        C466   1.402       .  A
C461        H468   1.084       .  S
C462       C1063   1.415       .  A
C463       C1062   1.416       .  A
C463       C1064   1.397       .  A
C463        N470   1.439       .  S
C464       C1063   1.396       .  A
C464        C465   1.405       .  A
C464        H469   1.084       .  S
C466        N467   1.438       .  S
N467        H471   1.046       .  S
N467        H472   1.046       .  S
N470        H473   1.042       .  S
N470        H474   1.046       .  S
C475        C480   1.404       .  A
C475        H482   1.083       .  S
C476        C477   1.415       .  A
C477        C478   1.399       .  A
C477        N484   1.439       .  S
C478        C479   1.401       .  A
C478        H483   1.084       .  S
C480        N481   1.437       .  S
N481        H485   1.046       .  S
N481        H486   1.045       .  S
N484        H487   1.046       .  S
N484        H488   1.046       .  S
C489        C490   1.402       .  A
C489        C494   1.396       .  A
C489        H496   1.084       .  S
C490        C491   1.411       .  A
C491        C492   1.408       .  A
C491        N498   1.437       .  S
C492        C493   1.404       .  A
C492        H497   1.084       .  S
C493        C494   1.411       .  A
C494        N495   1.439       .  S
N495        H499   1.046       .  S
N495        H500   1.045       .  S
N498        H501   1.046       .  S
N498        H502   1.046       .  S
C503        C504   1.403       .  A
C503        C508   1.398       .  A
C503        H510   1.084       .  S
C504        C505   1.414       .  A
C505        C506   1.407       .  A
C505        N512   1.438       .  S
C506        C507   1.402       .  A
C506        H511   1.084       .  S
C507        C508   1.410       .  A
C508        N509   1.439       .  S
N509        H513   1.046       .  S
N509        H514   1.045       .  S
N512        H515   1.046       .  S
N512        H516   1.046       .  S
C517        C518   1.402       .  A
C517        C522   1.400       .  A
C517        H524   1.084       .  S
C519        C520   1.395       .  A
C519        N526   1.439       .  S
C520        H525   1.084       .  S
C521        C522   1.419       .  A
C522        N523   1.439       .  S
N523        H527   1.046       .  S
N523        H528   1.043       .  S
N526        H529   1.043       .  S
N526        H530   1.046       .  S
C531        C532   1.406       .  A
C531        C536   1.398       .  A
C531        H538   1.084       .  S
C532        C533   1.415       .  A
C533        C534   1.406       .  A
C533        N540   1.437       .  S
C534        C535   1.402       .  A
C534        H539   1.084       .  S
C535        C536   1.405       .  A
C536        N537   1.433       .  S
N537        H541   1.046       .  S
N537        H542   1.045       .  S
N540        H543   1.045       .  S
N540        H544   1.046       .  S
C545        C546   1.407       .  A
C545        C550   1.402       .  A
C545        H552   1.083       .  S
C546        C547   1.414       .  A
C547        C548   1.405       .  A
C547        N554   1.438       .  S
C548        C549   1.404       .  A
C548        H553   1.084       .  S
C549        C550   1.409       .  A
C550        N551   1.438       .  S
N551        H555   1.046       .  S
N551        H556   1.046       .  S
N554        H557   1.045       .  S
N554        H558   1.046       .  S
C559        C564   1.397       .  A
C559        H566   1.083       .  S
C560        C561   1.419       .  A
C561        C562   1.404       .  A
C561        N568   1.438       .  S
C562        C563   1.403       .  A
C562        H567   1.084       .  S
C564        N565   1.439       .  S
N565        H569   1.046       .  S
N565        H570   1.042       .  S
N568        H571   1.046       .  S
N568        H572   1.046       .  S
C573        C574   1.402       .  A
C573        C578   1.406       .  A
C573        H580   1.084       .  S
C574        C575   1.412       .  A
C575        C576   1.399       .  A
C575        N582   1.439       .  S
C576        C577   1.403       .  A
C576        H581   1.084       .  S
C577        C578   1.411       .  A
C578        N579   1.438       .  S
N579        H583   1.046       .  S
N579        H584   1.046       .  S
N582        H585   1.045       .  S
N582        H586   1.046       .  S
C587        C588   1.406       .  A
C587        C592   1.406       .  A
C587        H594   1.083       .  S
C588        C589   1.412       .  A
C589        C590   1.401       .  A
C589        N596   1.438       .  S
C590        C591   1.400       .  A
C590        H595   1.084       .  S
C591        C592   1.408       .  A
C592        N593   1.438       .  S
N593        H597   1.046       .  S
N593        H598   1.046       .  S
N596        H599   1.045       .  S
N596        H600   1.046       .  S
C601        C902   1.411   1_554  A
C601        C606   1.408       .  A
C601        C860   1.494       .  S
C602        C901   1.410       .  A
C602        C603   1.401       .  A
C602        H607   1.083       .  S
C603        C604   1.398       .  A
C603        C888   1.482       .  S
C604        C905   1.397       .  A
C604        H608   1.084       .  S
C605        C904   1.398   1_554  A
C605        C606   1.400       .  A
C605        C874   1.475       .  S
C606        H609   1.082       .  S
C610        C911   1.407   1_554  A
C610        C615   1.404       .  A
C610        C821   1.486       .  S
C611        C910   1.406       .  A
C611        C612   1.404       .  A
C611        H616   1.083       .  S
C612        C613   1.403       .  A
C612        C846   1.488       .  S
C613        C914   1.402       .  A
C613        H617   1.083       .  S
C614        C913   1.401       .  A
C614        C615   1.398       .  A
C614        C835   1.478       .  S
C615        H618   1.084       .  S
C619        C920   1.407       .  A
C619        C624   1.407   1_556  A
C619        C776   1.484       .  S
C620        C919   1.409       .  A
C620        C621   1.401       .  A
C620        H625   1.084       .  S
C621        C622   1.398       .  A
C621        C807   1.478       .  S
C622        C923   1.398       .  A
C622        H626   1.085       .  S
C623        C922   1.399   1_554  A
C623        C624   1.400       .  A
C623        C790   1.478       .  S
C624        H627   1.083       .  S
N628        C633   1.354       .  A
N628        C632   1.353   1_655  A
N628        H660   1.036   1_564  S
N629        C636   1.349       .  A
N629        C637   1.349       .  A
N630        C635   1.351       .  A
N630        C634   1.354       .  A
N630        H661   1.038   1_556  S
N631        C638   1.350   1_545  A
N631        C639   1.350       .  A
C632        C640   1.387       .  A
C633        C649   1.417       .  A
C633        C641   1.387       .  A
C634        C642   1.386       .  A
C635        C650   1.414       .  A
C635        C643   1.388       .  A
C636        C648   1.410   1_545  A
C636        C644   1.385       .  A
C637        C651   1.414   1_554  A
C637        C645   1.387       .  A
C638        C646   1.389       .  A
C638        C649   1.418   1_556  A
C639        C647   1.384       .  A
C639        C650   1.411       .  A
C640        C641   1.370   1_455  A
C641        H653   1.082       .  S
C642        C643   1.370       .  A
C642        H654   1.082       .  S
C643        H655   1.083       .  S
C644        C645   1.367       .  A
C644        H656   1.081       .  S
C645        H657   1.081       .  S
C646        C647   1.368   1_565  A
C646        H658   1.081       .  S
C647        H659   1.081       .  S
C648        C818   1.485       .  S
C649        C863   1.489       .  S
C650        C779   1.484       .  S
C651        C762   1.486       .  S
C662        C663   1.408   1_556  A
C662        C967   1.406       .  A
C662        C765   1.485       .  S
C663        C664   1.396       .  A
C663        H668   1.084       .  S
C664        C965   1.395       .  A
C664        C734   1.469       .  S
C665        C964   1.395       .  A
C665        C666   1.401       .  A
C665        H669   1.084       .  S
C666        C667   1.403       .  A
C666        C748   1.480       .  S
C667        C962   1.408       .  A
C667        H670   1.082       .  S
O671       Zr683   2.447       .  S
O671        C673   1.288       .  A
O672       Zr709   2.405       .  S
O672        C673   1.283       .  A
C673        C891   1.465       .  S
O674       Zr686   2.445       .  S
O674        C676   1.288       .  A
O675       Zr710   2.405       .  S
O675        C676   1.284       .  A
C676        C832   1.480       .  S
O677       Zr686   2.444       .  S
O677        C679   1.288       .  A
O678       Zr709   2.414       .  S
O678        C679   1.285       .  A
C679        C849   1.475       .  S
O680       Zr683   2.440       .  S
O680        C682   1.288       .  A
O681       Zr710   2.408       .  S
O681        C682   1.284       .  A
C682        C877   1.471       .  S
Zr683       O684   2.433       .  S
Zr683       O685   2.435       .  S
Zr683       O689   2.370       .  S
Zr683       O690   2.374       .  S
Zr683       O713   2.374       .  S
Zr683       O715   2.372       .  S
O684        H727   0.990       .  S
O685        H726   0.989       .  S
O685        H730   0.991       .  S
Zr686       O687   2.437       .  S
Zr686       O688   2.434       .  S
Zr686       O690   2.367       .  S
Zr686       O689   2.372       .  S
Zr686       O714   2.374       .  S
Zr686       O716   2.376       .  S
O687        H728   0.990       .  S
O687        H731   0.990       .  S
O688        H721   0.990       .  S
O689       Zr709   2.368       .  S
O690       Zr710   2.371       .  S
O690        H717   0.964       .  S
O691       Zr703   2.454       .  S
O691        C693   1.289       .  A
O692       Zr710   2.398       .  S
O692        C693   1.282       .  A
C693        C793   1.473       .  S
O694       Zr706   2.442       .  S
O694        C696   1.287       .  A
O695       Zr709   2.407       .  S
O695        C696   1.284       .  A
C696        C751   1.477       .  S
O697       Zr706   2.455       .  S
O697        C699   1.290       .  A
O698       Zr710   2.398       .  S
O698        C699   1.282       .  A
C699        C737   1.470       .  S
O700       Zr703   2.444       .  S
O700        C702   1.288       .  A
O701       Zr709   2.407       .  S
O701        C702   1.284       .  A
C702        C804   1.477       .  S
Zr703       O704   2.437       .  S
Zr703       O705   2.435       .  S
Zr703       O711   2.368       .  S
Zr703       O712   2.378       .  S
Zr703       O715   2.376       .  S
Zr703       O713   2.376       .  S
O704        H724   0.990       .  S
O704        H729   0.990       .  S
O705        H725   0.990       .  S
Zr706       O707   2.435       .  S
Zr706       O708   2.434       .  S
Zr706       O712   2.378       .  S
Zr706       O711   2.374       .  S
Zr706       O716   2.372       .  S
Zr706       O714   2.376       .  S
O707        H723   0.990       .  S
O708        H722   0.989       .  S
O708        H732   0.991       .  S
Zr709       O712   2.378       .  S
Zr709       O714   2.378       .  S
Zr709       O715   2.376       .  S
Zr710       O711   2.378       .  S
Zr710       O713   2.372       .  S
Zr710       O716   2.371       .  S
O711        H719   0.968       .  S
O714        H718   0.967       .  S
O715        H720   0.966       .  S
C733        C734   1.401       .  A
C733        C738   1.402       .  A
C733        H740   1.084       .  S
C734        C735   1.414       .  A
C735        C736   1.395       .  A
C735        N742   1.440       .  S
C736        C737   1.404       .  A
C736        H741   1.085       .  S
C737        C738   1.417       .  A
C738        N739   1.439       .  S
N739        H743   1.046       .  S
N739        H744   1.041       .  S
N742        H745   1.043       .  S
N742        H746   1.046       .  S
C747        C748   1.404       .  A
C747        C752   1.408       .  A
C747        H754   1.084       .  S
C748        C749   1.410       .  A
C749        C750   1.395       .  A
C749        N756   1.434       .  S
C750        C751   1.402       .  A
C750        H755   1.084       .  S
C751        C752   1.415       .  A
C752        N753   1.438       .  S
N753        H757   1.046       .  S
N753        H758   1.045       .  S
N756        H759   1.046       .  S
N756        H760   1.045       .  S
C761       C1062   1.402       .  A
C761        C766   1.403       .  A
C761        H768   1.084       .  S
C762       C1061   1.403       .  A
C763        N770   1.439   1_455  S
C764        C765   1.405   1_554  A
C764        H769   1.084       .  S
C765       C1066   1.416       .  A
C766       C1065   1.417       .  A
C766        N767   1.438       .  S
N767        H771   1.046       .  S
N767        H772   1.046       .  S
N770        H773   1.042       .  S
N770        H774   1.045       .  S
C775       C1076   1.407       .  A
C775        C780   1.404       .  A
C775        H782   1.083       .  S
C776       C1075   1.407       .  A
C776        C777   1.415   1_556  A
C777        C778   1.399       .  A
C777        N784   1.439       .  S
C778        C779   1.400   1_554  A
C778        H783   1.084       .  S
C779       C1080   1.408       .  A
C780       C1079   1.408       .  A
C780        N781   1.437       .  S
N781        H785   1.046       .  S
N781        H786   1.045       .  S
N784        H787   1.046       .  S
N784        H788   1.046       .  S
C789        C790   1.402       .  A
C789        C794   1.397       .  A
C789        H796   1.084       .  S
C790        C791   1.410       .  A
C791        C792   1.410       .  A
C791        N798   1.437       .  S
C792        C793   1.405       .  A
C792        H797   1.084       .  S
C793        C794   1.411       .  A
C794        N795   1.439       .  S
N795        H799   1.046       .  S
N795        H800   1.046       .  S
N798        H801   1.046       .  S
N798        H802   1.046       .  S
C803        C804   1.403       .  A
C803        C808   1.398       .  A
C803        H810   1.084       .  S
C804        C805   1.414       .  A
C805        C806   1.408       .  A
C805        N812   1.438       .  S
C806        C807   1.403       .  A
C806        H811   1.084       .  S
C807        C808   1.411       .  A
C808        N809   1.439       .  S
N809        H813   1.045       .  S
N809        H814   1.045       .  S
N812        H815   1.046       .  S
N812        H816   1.046       .  S
C817        C818   1.402       .  A
C817        C822   1.401       .  A
C817        H824   1.084       .  S
C818       C1119   1.414   1_554  A
C819       C1118   1.414       .  A
C819        C820   1.394       .  A
C819        N826   1.439       .  S
C820       C1121   1.405       .  A
C820        H825   1.084       .  S
C821       C1120   1.405   1_554  A
C821        C822   1.420       .  A
C822        N823   1.439       .  S
N823        H827   1.046       .  S
N823        H828   1.043       .  S
N826        H829   1.043       .  S
N826        H830   1.046       .  S
C831        C832   1.406       .  A
C831        C836   1.398       .  A
C831        H838   1.084       .  S
C832        C833   1.415       .  A
C833        C834   1.406       .  A
C833        N840   1.438       .  S
C834        C835   1.403       .  A
C834        H839   1.084       .  S
C835        C836   1.406       .  A
C836        N837   1.433       .  S
N837        H841   1.046       .  S
N837        H842   1.045       .  S
N840        H843   1.045       .  S
N840        H844   1.046       .  S
C845        C846   1.407       .  A
C845        C850   1.403       .  A
C845        H852   1.083       .  S
C846        C847   1.413       .  A
C847        C848   1.405       .  A
C847        N854   1.438       .  S
C848        C849   1.404       .  A
C848        H853   1.084       .  S
C849        C850   1.409       .  A
C850        N851   1.438       .  S
N851        H855   1.046       .  S
N851        H856   1.046       .  S
N854        H857   1.045       .  S
N854        H858   1.046       .  S
C859       C1160   1.407       .  A
C859        C864   1.398       .  A
C859        H866   1.083       .  S
C860       C1159   1.408   1_554  A
C860        C861   1.419       .  A
C861        C862   1.403       .  A
C861        N868   1.438       .  S
C862        C863   1.402       .  A
C862        H867   1.084       .  S
C863       C1164   1.415   1_554  A
C864       C1163   1.416       .  A
C864        N865   1.439       .  S
N865        H869   1.045       .  S
N865        H870   1.042       .  S
N868        H871   1.046       .  S
N868        H872   1.046       .  S
C873        C874   1.402       .  A
C873        C878   1.406       .  A
C873        H880   1.084       .  S
C874        C875   1.411       .  A
C875        C876   1.399       .  A
C875        N882   1.439       .  S
C876        C877   1.402       .  A
C876        H881   1.084       .  S
C877        C878   1.411       .  A
C878        N879   1.438       .  S
N879        H883   1.046       .  S
N879        H884   1.046       .  S
N882        H885   1.046       .  S
N882        H886   1.046       .  S
C887        C888   1.406       .  A
C887        C892   1.406       .  A
C887        H894   1.083       .  S
C888        C889   1.413       .  A
C889        C890   1.401       .  A
C889        N896   1.438       .  S
C890        C891   1.399       .  A
C890        H895   1.084       .  S
C891        C892   1.408       .  A
C892        N893   1.438       .  S
N893        H897   1.046       .  S
N893        H898   1.046       .  S
N896        H899   1.045       .  S
N896        H900   1.046       .  S
C901        C906   1.409       .  A
C901       C1160   1.493       .  S
C902        C903   1.401       .  A
C902        H907   1.083       .  S
C903        C904   1.399       .  A
C903       C1188   1.482       .  S
C904        H908   1.084       .  S
C905        C906   1.401       .  A
C905       C1174   1.476       .  S
C906        H909   1.082       .  S
C910        C915   1.403       .  A
C910       C1121   1.485       .  S
C911        C912   1.406       .  A
C911        H916   1.083       .  S
C912        C913   1.404   1_556  A
C912       C1146   1.489       .  S
C913        H917   1.082       .  S
C914        C915   1.399       .  A
C914       C1135   1.477       .  S
C915        H918   1.084       .  S
C919        C924   1.407       .  A
C919       C1076   1.486       .  S
C920        C921   1.398       .  A
C920        H925   1.084       .  S
C921        C922   1.398       .  A
C921       C1107   1.475       .  S
C922        H926   1.085       .  S
C923        C924   1.398       .  A
C923       C1090   1.476       .  S
C924        H927   1.083       .  S
N928        C933   1.355       .  A
N928        C932   1.352   1_655  A
N928        H960   1.037   1_565  S
N929        C936   1.349       .  A
N929        C937   1.350       .  A
N930        C935   1.351       .  A
N930        C934   1.355       .  A
N930        H961   1.038       .  S
N931        C938   1.350   1_545  A
N931        C939   1.350       .  A
C932        C940   1.387       .  A
C933        C949   1.416       .  A
C933        C941   1.387       .  A
C934        C942   1.386       .  A
C935        C950   1.415       .  A
C935        C943   1.388       .  A
C936        C948   1.411   1_545  A
C936        C944   1.386       .  A
C937        C951   1.414       .  A
C937        C945   1.387       .  A
C938        C946   1.388       .  A
C938        C949   1.417       .  A
C939        C947   1.385       .  A
C939        C950   1.411       .  A
C940        C941   1.371   1_455  A
C941        H953   1.082       .  S
C942        C943   1.371       .  A
C942        H954   1.082       .  S
C943        H955   1.083       .  S
C944        C945   1.368       .  A
C944        H956   1.081       .  S
C945        H957   1.081       .  S
C946        C947   1.368   1_565  A
C946        H958   1.081       .  S
C947        H959   1.081       .  S
C948       C1118   1.485       .  S
C949       C1163   1.491       .  S
C950       C1079   1.484       .  S
C951       C1062   1.488       .  S
C962        C963   1.408       .  A
C962       C1065   1.489       .  S
C963        C964   1.398       .  A
C963        H968   1.084       .  S
C964       C1034   1.472       .  S
C965        C966   1.398   1_554  A
C965        H969   1.085       .  S
C966        C967   1.401       .  A
C966       C1048   1.474       .  S
C967        H970   1.083       .  S
O971       Zr983   2.447       .  S
O971        C973   1.287       .  A
O972      Zr1009   2.407       .  S
O972        C973   1.283       .  A
C973       C1191   1.467       .  S
O974       Zr986   2.442       .  S
O974        C976   1.287       .  A
O975      Zr1010   2.404       .  S
O975        C976   1.283       .  A
C976       C1132   1.479       .  S
O977       Zr986   2.439       .  S
O977        C979   1.287       .  A
O978      Zr1009   2.413       .  S
O978        C979   1.285       .  A
C979       C1149   1.475       .  S
O980       Zr983   2.441       .  S
O980        C982   1.287       .  A
O981      Zr1010   2.407       .  S
O981        C982   1.284       .  A
C982       C1177   1.473       .  S
Zr983       O984   2.432       .  S
Zr983       O985   2.436       .  S
Zr983       O989   2.370       .  S
Zr983       O990   2.374       .  S
Zr983      O1013   2.374       .  S
Zr983      O1015   2.371       .  S
O984       H1027   0.990       .  S
O985       H1026   0.989       .  S
O985       H1030   0.991       .  S
Zr986       O987   2.435       .  S
Zr986       O988   2.434       .  S
Zr986       O990   2.369       .  S
Zr986       O989   2.372       .  S
Zr986      O1014   2.375       .  S
Zr986      O1016   2.373       .  S
O987       H1028   0.990       .  S
O987       H1031   0.990       .  S
O988       H1021   0.990       .  S
O989      Zr1009   2.370       .  S
O990      Zr1010   2.375       .  S
O990       H1017   0.964       .  S
O991      Zr1003   2.450       .  S
O991        C993   1.289       .  A
O992      Zr1010   2.393       .  S
O992        C993   1.281       .  A
C993       C1093   1.470       .  S
O994      Zr1006   2.437       .  S
O994        C996   1.286       .  A
O995      Zr1009   2.406       .  S
O995        C996   1.284       .  A
C996       C1051   1.471       .  S
O997      Zr1006   2.449       .  S
O997        C999   1.288       .  A
O998      Zr1010   2.407       .  S
O998        C999   1.283       .  A
C999       C1037   1.464       .  S
O1000     Zr1003   2.440       .  S
O1000      C1002   1.287       .  A
O1001     Zr1009   2.404       .  S
O1001      C1002   1.284       .  A
C1002      C1104   1.475       .  S
Zr1003     O1004   2.436       .  S
Zr1003     O1005   2.433       .  S
Zr1003     O1011   2.370       .  S
Zr1003     O1012   2.374       .  S
Zr1003     O1015   2.375       .  S
Zr1003     O1013   2.374       .  S
O1004      H1024   0.990       .  S
O1004      H1029   0.990       .  S
O1005      H1025   0.990       .  S
Zr1006     O1007   2.434       .  S
Zr1006     O1008   2.435       .  S
Zr1006     O1012   2.376       .  S
Zr1006     O1011   2.373       .  S
Zr1006     O1016   2.370       .  S
Zr1006     O1014   2.376       .  S
O1007      H1023   0.990       .  S
O1008      H1022   0.990       .  S
O1008      H1032   0.991       .  S
Zr1009     O1012   2.377       .  S
Zr1009     O1014   2.382       .  S
Zr1009     O1015   2.376       .  S
Zr1010     O1011   2.378       .  S
Zr1010     O1013   2.374       .  S
Zr1010     O1016   2.371       .  S
O1011      H1019   0.968       .  S
O1014      H1018   0.967       .  S
O1015      H1020   0.966       .  S
C1033      C1034   1.402       .  A
C1033      C1038   1.400       .  A
C1033      H1040   1.084       .  S
C1034      C1035   1.417       .  A
C1035      C1036   1.398       .  A
C1035      N1042   1.439       .  S
C1036      C1037   1.401       .  A
C1036      H1041   1.085       .  S
C1037      C1038   1.414       .  A
C1038      N1039   1.439       .  S
N1039      H1043   1.046       .  S
N1039      H1044   1.043       .  S
N1042      H1045   1.042       .  S
N1042      H1046   1.046       .  S
C1047      C1048   1.402       .  A
C1047      C1052   1.406       .  A
C1047      H1054   1.084       .  S
C1048      C1049   1.409       .  A
C1049      C1050   1.394       .  A
C1049      N1056   1.433       .  S
C1050      C1051   1.401       .  A
C1050      H1055   1.085       .  S
C1051      C1052   1.414       .  A
C1052      N1053   1.438       .  S
N1053      H1057   1.046       .  S
N1053      H1058   1.045       .  S
N1056      H1059   1.046       .  S
N1056      H1060   1.045       .  S
C1061      C1066   1.402       .  A
C1061      H1068   1.084       .  S
C1063      N1070   1.439   1_455  S
C1064      C1065   1.406       .  A
C1064      H1069   1.084       .  S
C1066      N1067   1.438       .  S
N1067      H1071   1.046       .  S
N1067      H1072   1.046       .  S
N1070      H1073   1.042       .  S
N1070      H1074   1.045       .  S
C1075      C1080   1.403       .  A
C1075      H1082   1.083       .  S
C1076      C1077   1.417       .  A
C1077      C1078   1.398       .  A
C1077      N1084   1.439       .  S
C1078      C1079   1.400       .  A
C1078      H1083   1.084       .  S
C1080      N1081   1.438       .  S
N1081      H1085   1.046       .  S
N1081      H1086   1.045       .  S
N1084      H1087   1.045       .  S
N1084      H1088   1.046       .  S
C1089      C1090   1.402       .  A
C1089      C1094   1.397       .  A
C1089      H1096   1.084       .  S
C1090      C1091   1.410       .  A
C1091      C1092   1.408       .  A
C1091      N1098   1.437       .  S
C1092      C1093   1.404       .  A
C1092      H1097   1.084       .  S
C1093      C1094   1.411       .  A
C1094      N1095   1.440       .  S
N1095      H1099   1.046       .  S
N1095      H1100   1.046       .  S
N1098      H1101   1.046       .  S
N1098      H1102   1.046       .  S
C1103      C1104   1.403       .  A
C1103      C1108   1.397       .  A
C1103      H1110   1.084       .  S
C1104      C1105   1.413       .  A
C1105      C1106   1.407       .  A
C1105      N1112   1.438       .  S
C1106      C1107   1.402       .  A
C1106      H1111   1.084       .  S
C1107      C1108   1.410       .  A
C1108      N1109   1.439       .  S
N1109      H1113   1.046       .  S
N1109      H1114   1.045       .  S
N1112      H1115   1.046       .  S
N1112      H1116   1.046       .  S
C1117      C1118   1.403       .  A
C1117      C1122   1.402       .  A
C1117      H1124   1.084       .  S
C1119      C1120   1.396       .  A
C1119      N1126   1.439       .  S
C1120      H1125   1.084       .  S
C1121      C1122   1.420       .  A
C1122      N1123   1.439       .  S
N1123      H1127   1.046       .  S
N1123      H1128   1.043       .  S
N1126      H1129   1.043       .  S
N1126      H1130   1.045       .  S
C1131      C1132   1.405       .  A
C1131      C1136   1.397       .  A
C1131      H1138   1.084       .  S
C1132      C1133   1.415       .  A
C1133      C1134   1.406       .  A
C1133      N1140   1.438       .  S
C1134      C1135   1.403       .  A
C1134      H1139   1.084       .  S
C1135      C1136   1.406       .  A
C1136      N1137   1.433       .  S
N1137      H1141   1.046       .  S
N1137      H1142   1.045       .  S
N1140      H1143   1.045       .  S
N1140      H1144   1.046       .  S
C1145      C1146   1.407       .  A
C1145      C1150   1.403       .  A
C1145      H1152   1.083       .  S
C1146      C1147   1.414       .  A
C1147      C1148   1.404       .  A
C1147      N1154   1.438       .  S
C1148      C1149   1.403       .  A
C1148      H1153   1.084       .  S
C1149      C1150   1.410       .  A
C1150      N1151   1.438       .  S
N1151      H1155   1.046       .  S
N1151      H1156   1.046       .  S
N1154      H1157   1.045       .  S
N1154      H1158   1.046       .  S
C1159      C1164   1.397       .  A
C1159      H1166   1.083       .  S
C1160      C1161   1.418       .  A
C1161      C1162   1.403       .  A
C1161      N1168   1.438       .  S
C1162      C1163   1.402       .  A
C1162      H1167   1.084       .  S
C1164      N1165   1.439       .  S
N1165      H1169   1.046       .  S
N1165      H1170   1.042       .  S
N1168      H1171   1.046       .  S
N1168      H1172   1.046       .  S
C1173      C1174   1.402       .  A
C1173      C1178   1.407       .  A
C1173      H1180   1.084       .  S
C1174      C1175   1.411       .  A
C1175      C1176   1.398       .  A
C1175      N1182   1.439       .  S
C1176      C1177   1.402       .  A
C1176      H1181   1.084       .  S
C1177      C1178   1.412       .  A
C1178      N1179   1.437       .  S
N1179      H1183   1.046       .  S
N1179      H1184   1.046       .  S
N1182      H1185   1.046       .  S
N1182      H1186   1.046       .  S
C1187      C1188   1.406       .  A
C1187      C1192   1.405       .  A
C1187      H1194   1.083       .  S
C1188      C1189   1.412       .  A
C1189      C1190   1.402       .  A
C1189      N1196   1.438       .  S
C1190      C1191   1.400       .  A
C1190      H1195   1.084       .  S
C1191      C1192   1.408       .  A
C1192      N1193   1.438       .  S
N1193      H1197   1.046       .  S
N1193      H1198   1.046       .  S
N1196      H1199   1.046       .  S
N1196      H1200   1.046       .  S
