geometry optimzed in LAMMPS
_audit_creation_date              2020-11-30 
_audit_creation_method            'lammps2cif' 
_symmetry_space_group_name_H-M    'P1' 
_symmetry_Int_Tables_number       1 
_symmetry_cell_setting            triclinic 
loop_ 
_symmetry_equiv_pos_as_xyz 
  x,y,z 
_cell_length_a                    28.1461813889219 
_cell_length_b                    28.163332964485193 
_cell_length_c                    32.140758214952164 
_cell_angle_alpha                 90.65170530578887 
_cell_angle_beta                  92.08511562768577 
_cell_angle_gamma                 90.28174520162437 
loop_ 
_atom_site_label 
_atom_site_type_symbol 
_atom_site_fract_x 
_atom_site_fract_y 
_atom_site_fract_z 
_atom_site_charge 
C1          C  0.24956770  0.82923402  0.33452573     0.42470
N2          N  0.28703998  0.76359221  0.32674307     0.01360
C3          C  0.21038328  0.53323624  0.35385481    -0.06520
H4          H  0.15724041  0.64929731  0.46550516     0.06850
C5          C  0.34690776  0.66364187  0.49921520    -0.06870
Co6        Co  0.22320095  0.67674583  0.32248036     0.74180
N7          N  0.19496630  0.66059542  0.40961295    -0.26050
Co8        Co  0.24984449  0.61124663  0.41067519     0.74070
C9          C  0.30524569  0.65834313  0.52515010     0.42570
N10         N  0.38873454  0.71345058  0.40510860     0.00970
N11         N  0.28503700  0.64299092  0.46136021     0.01080
N12         N  0.19512325  0.57106958  0.29309669    -0.46900
H13         H  0.17697821  0.79056999  0.33125366     0.06840
N14         N  0.18482462  0.68465108  0.37561186     0.01360
N15         N  0.30319183  0.56066222  0.41092590     0.01100
C16         C  0.34272628  0.49786070  0.42600590     0.42710
N17         N  0.37889108  0.74055959  0.37285584    -0.25510
C18         C  0.24667645  0.65783218  0.23025371    -0.06430
N19         N  0.29299259  0.81009263  0.33064622    -0.46610
N20         N  0.29868761  0.51648783  0.42379699    -0.46830
C21         C  0.28743522  0.66722069  0.20448175     0.42480
N22         N  0.20922479  0.60166632  0.32329849     0.01350
N23         N  0.39135623  0.66191212  0.31692928    -0.25530
N24         N  0.24186759  0.75022129  0.32619248    -0.26020
N25         N  0.40219348  0.63327370  0.34807443     0.00990
H26         H  0.41237351  0.66549273  0.25339359     0.06880
H27         H  0.41365118  0.53651130  0.41852069     0.06920
N28         N  0.21871736  0.57948687  0.35863301    -0.26070
N29         N  0.33093217  0.65296474  0.46029167    -0.25680
N30         N  0.30538684  0.68631057  0.26804387     0.01360
C31         C  0.12657570  0.69983984  0.41491088     0.42750
C32         C  0.40723711  0.77897598  0.37551544    -0.06930
N33         N  0.34786322  0.57281750  0.40646704    -0.25680
H34         H  0.38358777  0.67111371  0.50810112     0.06900
N35         N  0.14445992  0.70817259  0.37737894    -0.46900
H36         H  0.41105013  0.80458420  0.35103281     0.06890
C37         C  0.44207141  0.60796958  0.29675224     0.42590
C38         C  0.21533672  0.78964204  0.33045381    -0.06430
Co39       Co  0.34079194  0.71404370  0.32092924     0.73820
N40         N  0.42340869  0.73091991  0.42960176    -0.46620
C41         C  0.19511715  0.52718631  0.31086025     0.42850
N42         N  0.32224468  0.68505718  0.23014979    -0.46610
Co43       Co  0.36818934  0.64292303  0.40512949     0.73890
C44         C  0.37534867  0.53529957  0.41434382    -0.06940
C45         C  0.16030299  0.66792558  0.43653478    -0.06500
N46         N  0.26128286  0.67081607  0.26890412    -0.26030
N47         N  0.26863316  0.64530898  0.49926283    -0.46790
H48         H  0.21693982  0.50653344  0.37724210     0.06860
C49         C  0.41513463  0.64910698  0.28363021    -0.06910
Cl50       Cl  0.29543658  0.66150642  0.36496548    -0.49910
C51         C  0.43740167  0.77224362  0.41314854     0.42620
H52         H  0.21111873  0.64605404  0.22126992     0.06830
N53         N  0.43254867  0.59969437  0.33714456    -0.46630
C54         C  0.29165110  0.66501390  0.02415345     0.42470
N55         N  0.27323835  0.64283445  0.96145815     0.01360
C56         C  0.41738410  0.64438798  0.79038447    -0.06520
H57         H  0.40580015  0.79630387  0.84653664     0.06850
C58         C  0.20835862  0.78073311  0.82059179    -0.06870
Co59       Co  0.35874669  0.63991977  0.90774535     0.74180
N60         N  0.37027371  0.73532992  0.87092952    -0.26050
Co61       Co  0.33472578  0.70464393  0.81922766     0.74070
C62         C  0.24287684  0.82027337  0.82130777     0.42570
N63         N  0.17529058  0.67793251  0.87038408     0.00970
N64         N  0.28016380  0.75395378  0.81982996     0.01080
N65         N  0.43316198  0.59867516  0.84675612    -0.46900
H66         H  0.37004786  0.67727557  0.00783067     0.06840
N67         N  0.37827766  0.71057480  0.90496771     0.01360
N68         N  0.30204337  0.67259699  0.76721025     0.01100
C69         C  0.28682325  0.65013099  0.70399938     0.42710
N70         N  0.18479513  0.65673025  0.90607368    -0.25510
C71         C  0.36600996  0.53181424  0.92059191    -0.06430
N72         N  0.25582186  0.64847701  0.99884039    -0.46610
N73         N  0.32072632  0.66875620  0.73016242    -0.46830
C74         C  0.33289675  0.49417676  0.93127722     0.42480
N75         N  0.39679785  0.62764415  0.85294657     0.01350
N76         N  0.21120470  0.57273829  0.85970374    -0.25530
N77         N  0.31898007  0.65347060  0.96062490    -0.26020
N78         N  0.20354867  0.59284341  0.82312659     0.00990
H79         H  0.20933663  0.50088122  0.88108852     0.06880
H80         H  0.20947898  0.63038131  0.71934443     0.06920
N81         N  0.38710989  0.65413320  0.82012193    -0.26070
N82         N  0.23489369  0.74088410  0.81934343    -0.25680
N83         N  0.29396866  0.55731687  0.91529603     0.01360
C84         C  0.42710637  0.76946812  0.91181833     0.42750
C85         C  0.14931368  0.66593535  0.93181146    -0.06930
N86         N  0.25759632  0.65792946  0.76720008    -0.25680
H87         H  0.16997732  0.78194693  0.82091179     0.06900
N88         N  0.41193438  0.72944182  0.92968593    -0.46900
H89         H  0.14511677  0.65015149  0.96198837     0.06890
C90         C  0.19231879  0.51774881  0.81283471     0.42590
C91         C  0.33370669  0.66840736  0.99871619    -0.06430
Co92       Co  0.24008790  0.60764609  0.91125107     0.73820
N93         N  0.13414273  0.70053586  0.86962886    -0.46620
C94         C  0.44817878  0.60818106  0.80797333     0.42850
N95         N  0.28899051  0.51312089  0.92811023    -0.46610
Co96       Co  0.21674345  0.66737115  0.81908682     0.73890
C97         C  0.24469360  0.64271776  0.72873470    -0.06940
C98         C  0.39933635  0.77334848  0.87250573    -0.06500
N99         N  0.33883924  0.56943477  0.91175013    -0.26030
N100        N  0.28628721  0.80049407  0.82066672    -0.46790
H101        H  0.41773792  0.66106026  0.76025653     0.06860
C102        C  0.20390078  0.52618585  0.85637241    -0.06910
Cl103      Cl  0.28754429  0.65505517  0.86444543    -0.49910
C104        C  0.11583141  0.69513712  0.90741028     0.42620
H105        H  0.40429282  0.53269863  0.92497941     0.06830
N106        N  0.19232919  0.56061612  0.79352152    -0.46630
C107        C  0.92283721  0.74249583  0.94927819     0.42470
N108        N  0.86992811  0.76970974  0.98944911     0.01360
C109        C  0.64685826  0.86146840  0.94600172    -0.06520
H110        H  0.77175727  0.92481321  0.85085590     0.06850
C111        C  0.86505099  0.98888143  0.97625275    -0.06870
Co112      Co  0.77339433  0.78410335  0.94908693     0.74180
N113        N  0.77477930  0.87096535  0.89789518    -0.26050
Co114      Co  0.74756469  0.90359241  0.95008022     0.74070
C115        C  0.85500447  0.00022227  0.93234676     0.42570
N116        N  0.88713101  0.89554143  0.04349476     0.00970
N117        N  0.80274322  0.95132161  0.95222849     0.01080
N118        N  0.66201183  0.78261338  0.94327815    -0.46900
H119        H  0.86817319  0.73912205  0.89332909     0.06840
N120        N  0.78488344  0.82535349  0.89697445     0.01360
N121        N  0.72104411  0.93666309  0.00216082     0.01100
C122        C  0.68451395  0.98849812  0.03865650     0.42710
N123        N  0.89584011  0.84976609  0.04579879    -0.25510
C124        C  0.73304772  0.70652648  0.00520753    -0.06430
N125        N  0.91491519  0.75755648  0.98812963    -0.46610
N126        N  0.68330772  0.96444177  0.00206028    -0.46830
C127        C  0.74496311  0.68808477  0.04635527     0.42480
N128        N  0.70199728  0.80787368  0.94722764     0.01350
N129        N  0.81195193  0.83271774  0.09204052    -0.25530
N130        N  0.84612691  0.76395347  0.95354152    -0.26020
N131        N  0.80418302  0.87889296  0.09262978     0.00990
H132        H  0.81336252  0.77939498  0.13940594     0.06880
H133        H  0.74348311  0.98751124  0.08977350     0.06920
N134        N  0.69360158  0.85391486  0.94857671    -0.26070
N135        N  0.83061848  0.95784648  0.98572714    -0.25680
N136        N  0.78702203  0.74994432  0.03651740     0.01360
C137        C  0.79457094  0.84874570  0.83450827     0.42750
C138        C  0.94147636  0.84396045  0.05803048    -0.06930
N139        N  0.74796546  0.94208307  0.03622480    -0.25680
H140        H  0.89428597  0.00030125  0.99678993     0.06900
N141        N  0.79581813  0.81022656  0.85929934    -0.46900
H142        H  0.95767411  0.81050812  0.06645177     0.06890
C143        C  0.79385246  0.85654640  0.15529415     0.42590
C144        C  0.87682152  0.74662066  0.92577890    -0.06430
Co145      Co  0.84111992  0.79983750  0.04117909     0.73820
N146        N  0.92466524  0.92182447  0.05437882    -0.46620
C147        C  0.62572423  0.81432444  0.94286082     0.42850
N148        N  0.77932528  0.71612439  0.06374190    -0.46610
Co149      Co  0.81766692  0.91943602  0.03991673     0.73890
C150        C  0.72683935  0.97219714  0.06182934    -0.06940
C151        C  0.78029635  0.88893170  0.86000377    -0.06500
N152        N  0.76143526  0.74427083  0.00160365    -0.26030
N153        N  0.81621073  0.97546439  0.91985314    -0.46790
H154        H  0.63035993  0.89599474  0.94445109     0.06860
C155        C  0.80563830  0.81535621  0.12994515    -0.06910
Cl156      Cl  0.79487082  0.85169245  0.99509614    -0.49910
C157        C  0.96091223  0.89196630  0.06323058     0.42620
H158        H  0.71043769  0.69124169  0.98057299     0.06830
N159        N  0.79406015  0.89486467  0.13024813    -0.46630
C160        C  0.93026583  0.73992427  0.45020521     0.42470
N161        N  0.87505116  0.76326630  0.48941694     0.01360
C162        C  0.65610259  0.86200775  0.44714225    -0.06520
H163        H  0.78230561  0.92914457  0.35374261     0.06850
C164        C  0.87935632  0.98220124  0.48092397    -0.06870
Co165      Co  0.78176016  0.78366140  0.44599156     0.74180
N166        N  0.78563149  0.87335628  0.39906708    -0.26050
Co167      Co  0.75795049  0.90372911  0.45185792     0.74070
C168        C  0.86996213  0.99573799  0.43712637     0.42570
N169        N  0.89375202  0.88477150  0.54747302     0.00970
N170        N  0.81466035  0.94951703  0.45637559     0.01080
N171        N  0.67157630  0.78334067  0.44048097    -0.46900
H172        H  0.88008520  0.74368897  0.39144140     0.06840
N173        N  0.79594794  0.82790741  0.39670403     0.01360
N174        N  0.73134191  0.93591570  0.50445502     0.01100
C175        C  0.69677067  0.98802051  0.54211676     0.42710
N176        N  0.90006654  0.83861097  0.54969833    -0.25510
C177        C  0.73824559  0.70104264  0.49292625    -0.06430
N178        N  0.91995664  0.75057123  0.48955377    -0.46610
N179        N  0.69508552  0.96562606  0.50465771    -0.46830
C180        C  0.74698007  0.67774476  0.53256238     0.42480
N181        N  0.71135445  0.80876215  0.44402767     0.01350
N182        N  0.81302869  0.82301325  0.59162807    -0.25530
N183        N  0.85379925  0.76200075  0.45206514    -0.26020
N184        N  0.80784009  0.86962253  0.59335813     0.00990
H185        H  0.80865195  0.76806693  0.63725471     0.06880
H186        H  0.75517638  0.98359083  0.59341403     0.06920
N187        N  0.70300145  0.85474599  0.44781061    -0.26070
N188        N  0.84295020  0.95292952  0.48995361    -0.25680
N189        N  0.78868737  0.74187482  0.53127861     0.01360
C190        C  0.80499344  0.85387440  0.33496846     0.42750
C191        C  0.94454009  0.83049988  0.56411105    -0.06930
N192        N  0.75803599  0.93923448  0.53883085    -0.25680
H193        H  0.90938838  0.99107749  0.50153717     0.06900
N194        N  0.80666884  0.81444614  0.35857566    -0.46900
H195        H  0.95856481  0.79618832  0.57281451     0.06890
C196        C  0.79150830  0.84557998  0.65453367     0.42590
C197        C  0.88627551  0.74757658  0.42470359    -0.06430
Co198      Co  0.84391707  0.79093599  0.54098423     0.73820
N199        N  0.93172694  0.90902851  0.56052852    -0.46620
C200        C  0.63561875  0.81481236  0.44280205     0.42850
N201        N  0.77946040  0.70451513  0.55452144    -0.46610
Co202      Co  0.82608439  0.91240211  0.54284302     0.73890
C203        C  0.73830360  0.96993647  0.56492535    -0.06940
C204        C  0.79109050  0.89297180  0.36179869    -0.06500
N205        N  0.76606306  0.73960919  0.49469102    -0.26030
N206        N  0.82948177  0.97391209  0.42464632    -0.46790
H207        H  0.63872195  0.89610071  0.44883591     0.06860
C208        C  0.80325528  0.80468875  0.62860347    -0.06910
Cl209      Cl  0.80225980  0.84763510  0.49554029    -0.49910
C210        C  0.96579519  0.87742977  0.57110360     0.42620
H211        H  0.71863434  0.68828403  0.46543968     0.06830
N212        N  0.79571507  0.88462374  0.63072182    -0.46630
C213        C  0.54391160  0.49713517  0.17726726     0.42470
N214        N  0.59694149  0.44961686  0.15544122     0.01360
C215        C  0.58322338  0.30797067  0.97763955    -0.06520
H216        H  0.43410149  0.30699028  0.04775387     0.06850
C217        C  0.52391558  0.24430571  0.18435576    -0.06870
Co218      Co  0.57796199  0.41485315  0.06795966     0.74180
N219        N  0.49824456  0.34555658  0.06534865    -0.26050
Co220      Co  0.55231824  0.29557918  0.06760486     0.74070
C221        C  0.47763370  0.23683884  0.16251289     0.42570
N222        N  0.61570056  0.32535750  0.20918517     0.00970
N223        N  0.52628391  0.26617350  0.12034982     0.01080
N224        N  0.59866985  0.38695782  0.97670530    -0.46900
H225        H  0.50301197  0.49376363  0.11321761     0.06840
N226        N  0.50831110  0.39120096  0.06737477     0.01360
N227        N  0.60625919  0.24633901  0.06994061     0.01100
C228        C  0.64867551  0.18572448  0.05731277     0.42710
N229        N  0.62767628  0.37060891  0.20846438    -0.25510
C230        C  0.66564403  0.46949676  0.04291932    -0.06430
N231        N  0.58413024  0.47422563  0.18828149    -0.46610
N232        N  0.61287170  0.21253264  0.04191931    -0.46830
C233        C  0.70660357  0.49027349  0.06563008     0.42480
N234        N  0.58843274  0.37272282  0.01460386     0.01350
N235        N  0.70581430  0.35228151  0.15438405    -0.25530
N236        N  0.56765574  0.45439117  0.12281492    -0.26020
N237        N  0.69621831  0.30640476  0.15629868     0.00990
H238        H  0.77091948  0.39288439  0.15683649     0.06880
H239        H  0.68678722  0.19026143  0.12170709     0.06920
N240        N  0.57887241  0.32685907  0.01555111    -0.26070
N241        N  0.55220561  0.26208695  0.15524425    -0.25680
N242        N  0.67589806  0.43530774  0.10228705     0.01360
C243        C  0.43358105  0.38874330  0.05120543     0.42750
C244        C  0.62370287  0.38930813  0.24664318    -0.06930
N245        N  0.63384974  0.24174685  0.10368439    -0.25680
H246        H  0.53439081  0.23719457  0.21637656     0.06900
N247        N  0.47098924  0.41799162  0.05879714    -0.46900
H248        H  0.63242555  0.42548121  0.25576640     0.06890
C249        C  0.77262950  0.31129737  0.15961635     0.42590
C250        C  0.53283544  0.48419854  0.13342022    -0.06430
Co251      Co  0.65227748  0.40234407  0.15525893     0.73820
N252        N  0.60372148  0.31140873  0.24665724    -0.46620
C253        C  0.59596696  0.34780845  0.95176402     0.42850
N254        N  0.71108501  0.46664816  0.10191475    -0.46610
Co255      Co  0.62472209  0.28278303  0.15682574     0.73890
C256        C  0.66245670  0.20466127  0.09833281    -0.06940
C257        C  0.45179074  0.34032581  0.05530895    -0.06500
N258        N  0.64759412  0.43823761  0.06890029    -0.26030
N259        N  0.48200784  0.25154147  0.12335414    -0.46790
H260        H  0.57555582  0.27141644  0.96916928     0.06860
C261        C  0.75294621  0.35883730  0.15586177    -0.06910
Cl262      Cl  0.60197305  0.34884571  0.11183921    -0.49910
C263        C  0.60746351  0.35014017  0.27182456     0.42620
H264        H  0.64684047  0.48304936  0.01564453     0.06830
N265        N  0.73542319  0.28049975  0.15994867    -0.46630
C266        C  0.54893144  0.50123479  0.68871884     0.42470
N267        N  0.55235577  0.43271939  0.65879376     0.01360
C268        C  0.75484005  0.30152629  0.62058954    -0.06520
H269        H  0.70853069  0.42886458  0.51031481     0.06850
C270        C  0.56054316  0.32682166  0.47600912    -0.06870
Co271      Co  0.65247830  0.39737726  0.65762360     0.74180
N272        N  0.68327361  0.40636607  0.56993619    -0.26050
Co273      Co  0.66867233  0.33271388  0.56656354     0.74070
C274        C  0.59802704  0.34685556  0.45118763     0.42570
N275        N  0.49910070  0.34381959  0.56803733     0.00970
N276        N  0.62364896  0.34053049  0.51459949     0.01080
N277        N  0.74492222  0.34360501  0.67992765    -0.46900
H278        H  0.63041805  0.50714636  0.69327559     0.06840
N279        N  0.67738015  0.42980680  0.60528635     0.01360
N280        N  0.65109418  0.25972452  0.56635671     0.01100
C281        C  0.65223326  0.18387335  0.56776980     0.42710
N282        N  0.49195092  0.37106242  0.60084100    -0.25510
C283        C  0.64380394  0.36174192  0.74706908    -0.06430
N284        N  0.52290721  0.46412973  0.67407564    -0.46610
N285        N  0.68025862  0.22286888  0.56509928    -0.46830
C286        C  0.60475665  0.34618301  0.77227771     0.42480
N287        N  0.70791849  0.34830150  0.65345025     0.01350
N288        N  0.51693023  0.29067061  0.65338146    -0.25530
N289        N  0.59719214  0.44641726  0.66266387    -0.26020
N290        N  0.52120769  0.26435531  0.61963873     0.00990
H291        H  0.47440186  0.28459801  0.70701765     0.06880
H292        H  0.57109178  0.17835229  0.57046427     0.06920
N293        N  0.71348516  0.32456366  0.61836829    -0.26070
N294        N  0.57969110  0.32424060  0.51471666    -0.25680
N295        N  0.57954208  0.35180329  0.70863134     0.01360
C296        C  0.70391054  0.48249550  0.56495090     0.42750
C297        C  0.45552043  0.40026407  0.59099304    -0.06930
N298        N  0.60617374  0.24633006  0.56847971    -0.25680
H299        H  0.52563098  0.31392179  0.46620916     0.06900
N300        N  0.68926962  0.47508779  0.60358782    -0.46900
H301        H  0.44118835  0.42698223  0.61137599     0.06890
C302        C  0.47283130  0.22567906  0.65735841     0.42590
C303        C  0.59855985  0.48970798  0.68085992    -0.06430
Co304      Co  0.53485298  0.36170137  0.65552924     0.73820
N305        N  0.46990969  0.35223997  0.53617878    -0.46620
C306        C  0.77551359  0.31383063  0.66139451     0.42850
N307        N  0.56604091  0.34070701  0.74639626    -0.46610
Co308      Co  0.55140759  0.29408718  0.56746844     0.73890
C309        C  0.60343347  0.19917266  0.56966846    -0.06940
C310        C  0.69976859  0.43722259  0.54204342    -0.06500
N311        N  0.62473509  0.36468621  0.70852992    -0.26030
N312        N  0.63626564  0.35391204  0.47717641    -0.46790
H313        H  0.77031314  0.28192654  0.59535545     0.06860
C314        C  0.48876045  0.26851679  0.67947865    -0.06910
Cl315      Cl  0.60188877  0.34650690  0.61185815    -0.49910
C316        C  0.44095518  0.38716928  0.54778402     0.42620
H317        H  0.67928313  0.37333539  0.75647038     0.06830
N318        N  0.49377195  0.22586939  0.62003632    -0.46630
C319        C  0.21597726  0.02818985  0.29883840     0.42470
N320        N  0.19139470  0.08303002  0.25764353     0.01360
C321        C  0.10649940  0.31042466  0.28054858    -0.06520
H322        H  0.03555240  0.19259411  0.38637807     0.06850
C323        C  0.97777398  0.08963865  0.26779674    -0.06870
Co324      Co  0.17841769  0.18038835  0.29400097     0.74180
N325        N  0.09035441  0.18607315  0.34166374    -0.26050
Co326      Co  0.05886429  0.21106200  0.28673019     0.74070
C327        C  0.96663591  0.10098386  0.31135614     0.42570
N328        N  0.06707877  0.06755152  0.20132735     0.00970
N329        N  0.01059930  0.15593238  0.28725614     0.01080
N330        N  0.18432537  0.29146198  0.28786162    -0.46900
H331        H  0.21855580  0.08100343  0.35506455     0.06840
N332        N  0.13510847  0.17278967  0.34458097     0.01360
N333        N  0.02455310  0.23492332  0.23209290     0.01100
C334        C  0.97075495  0.26703024  0.19185763     0.42710
N335        N  0.11262980  0.05799640  0.19947941    -0.25510
C336        C  0.26251799  0.21361721  0.24365475    -0.06430
N337        N  0.20236788  0.03785731  0.25961831    -0.46610
N338        N  0.99446283  0.27098519  0.22924355    -0.46830
C339        C  0.28384705  0.20007751  0.20469722     0.42480
N340        N  0.15689012  0.25293173  0.28958705     0.01350
N341        N  0.13189310  0.14023899  0.15093410    -0.25530
N342        N  0.19617056  0.10607502  0.29363345    -0.26020
N343        N  0.08573202  0.14889742  0.14871366     0.00990
H344        H  0.18580139  0.13670328  0.10525196     0.06880
H345        H  0.97284458  0.20469355  0.14572654     0.06920
N346        N  0.11118787  0.26346644  0.28534655    -0.26070
N347        N  0.00551043  0.12574528  0.25566541    -0.25680
N348        N  0.21641137  0.16430109  0.20914262     0.01360
C349        C  0.10992591  0.16581888  0.40658729     0.42750
C350        C  0.11724217  0.01199932  0.18899283    -0.06930
N351        N  0.01979579  0.20594618  0.19979383    -0.25680
H352        H  0.96923975  0.05830649  0.24926806     0.06900
N353        N  0.14856804  0.16102129  0.38305501    -0.46900
H354        H  0.15021778  0.99477092  0.18171049     0.06890
C355        C  0.10917984  0.15773916  0.08629475     0.42590
C356        C  0.21151890  0.07378475  0.32229419    -0.06430
Co357      Co  0.16371151  0.11178867  0.20394122     0.73820
N358        N  0.03978673  0.03034427  0.19219044    -0.46620
C359        C  0.15497794  0.32924639  0.28200556     0.42850
N360        N  0.25346221  0.16894909  0.18509741    -0.46610
Co361      Co  0.04382329  0.13686453  0.20098834     0.73890
C362        C  0.98797967  0.22378719  0.17247641    -0.06940
C363        C  0.07137174  0.18257171  0.37912147    -0.06500
N364        N  0.22173033  0.18916369  0.24399444    -0.26030
N365        N  0.98842074  0.14249009  0.32064260    -0.46790
H366        H  0.07307811  0.32892716  0.27680008     0.06860
C367        C  0.14974740  0.14496697  0.11323913    -0.06910
Cl368      Cl  0.11129593  0.16029289  0.24624098    -0.49910
C369        C  0.06862757  0.99342358  0.18469595     0.42620
H370        H  0.27756443  0.23402552  0.26966087     0.06830
N371        N  0.07058286  0.15927213  0.11030116    -0.46630
C372        C  0.20819222  0.02030040  0.80192534     0.42470
N373        N  0.18649462  0.07343927  0.75828400     0.01360
C374        C  0.10664846  0.30254996  0.77948243    -0.06520
H375        H  0.03408001  0.18752376  0.88557317     0.06850
C376        C  0.96981087  0.08868764  0.76586314    -0.06870
Co377      Co  0.17663247  0.17198314  0.79278337     0.74180
N378        N  0.08889881  0.17970760  0.84103382    -0.26050
Co379      Co  0.05787947  0.20505437  0.78636579     0.74070
C380        C  0.95857765  0.10064840  0.80916328     0.42570
N381        N  0.06097504  0.06141405  0.70200637     0.00970
N382        N  0.00772130  0.15176705  0.78678725     0.01080
N383        N  0.18447074  0.28292962  0.78539280    -0.46900
H384        H  0.21276952  0.07538593  0.85608811     0.06840
N385        N  0.13348276  0.16591269  0.84401602     0.01360
N386        N  0.02430478  0.23020405  0.73241119     0.01100
C387        C  0.97062420  0.26539170  0.69469237     0.42710
N388        N  0.10632866  0.05058239  0.70170459    -0.25510
C389        C  0.26178468  0.20067688  0.73992004    -0.06430
N390        N  0.19595347  0.02788019  0.76195061    -0.46610
N391        N  0.99607808  0.26768919  0.73110178    -0.46830
C392        C  0.28101736  0.18545921  0.70032383     0.42480
N393        N  0.15671828  0.24471560  0.78781234     0.01350
N394        N  0.12742054  0.13128509  0.65089176    -0.25530
N395        N  0.19198214  0.09782253  0.79356678    -0.26020
N396        N  0.08164752  0.14164865  0.64853740     0.00990
H397        H  0.18190922  0.12817781  0.60591366     0.06880
H398        H  0.96759479  0.20372670  0.64745418     0.06920
N399        N  0.11113419  0.25577713  0.78444938    -0.26070
N400        N  0.00081842  0.12236968  0.75486851    -0.25680
N401        N  0.21262783  0.15292702  0.70737135     0.01360
C402        C  0.10798351  0.15994072  0.90604379     0.42750
C403        C  0.11044963  0.00367326  0.69581960    -0.06930
N404        N  0.01720116  0.20187034  0.69986131    -0.25680
H405        H  0.95833207  0.05906553  0.74631268     0.06900
N406        N  0.14664941  0.15415808  0.88261796    -0.46900
H407        H  0.14338669  0.98491413  0.69154653     0.06890
C408        C  0.10602775  0.15183517  0.58654476     0.42590
C409        C  0.20580793  0.06678135  0.82355404    -0.06430
Co410      Co  0.15876718  0.10224910  0.70409721     0.73820
N411        N  0.03314548  0.02388368  0.69589887    -0.46620
C412        C  0.15514626  0.32074437  0.77948429     0.42850
N413        N  0.24864322  0.15566223  0.68198385    -0.46610
Co414      Co  0.03939476  0.13161007  0.70064966     0.73890
C415        C  0.98480093  0.22158661  0.67394143    -0.06940
C416        C  0.06983900  0.17710879  0.87846783    -0.06500
N417        N  0.21992342  0.17820793  0.74180520    -0.26030
N418        N  0.98348714  0.14010893  0.81947650    -0.46790
H419        H  0.07320887  0.32109935  0.77668798     0.06860
C420        C  0.14588209  0.13694933  0.61355296    -0.06910
Cl421      Cl  0.10825854  0.15300412  0.74580469    -0.49910
C422        C  0.06174206  0.98580584  0.69230969     0.42620
H423        H  0.27836398  0.22167289  0.76485021     0.06830
N424        N  0.06725525  0.15371867  0.61033651    -0.46630
C425        C  0.10617153  0.15623012  0.54050152    -0.05460
C426        C  0.14983257  0.15767736  0.52058544    -0.32890
C427        C  0.15163692  0.15979737  0.47718413     0.36360
C428        C  0.10926208  0.16124595  0.45254071    -0.05810
C429        C  0.06553791  0.15974816  0.47236947    -0.32780
C430        C  0.06373714  0.15739439  0.51584232     0.36270
H431        H  0.18306560  0.15736322  0.53858477     0.16640
O432        O  0.19515289  0.16196787  0.45941921    -0.60280
H433        H  0.03238984  0.16011792  0.45420797     0.16660
O434        O  0.02026559  0.15486918  0.53364281    -0.60380
H435        H  0.01020009  0.18831752  0.53723514     0.43650
H436        H  0.20502495  0.12843710  0.45596675     0.43610
C437        C  0.10779865  0.15774336  0.04018602    -0.05460
C438        C  0.13995086  0.12948896  0.01846176    -0.32890
C439        C  0.14001789  0.12935506  0.97484967     0.36360
C440        C  0.10770621  0.15789084  0.95211402    -0.05810
C441        C  0.07506364  0.18556926  0.97386849    -0.32780
C442        C  0.07484557  0.18549548  0.01746510     0.36270
H443        H  0.16486929  0.10689414  0.03524441     0.16640
O444        O  0.17062051  0.09990862  0.95476378    -0.60280
H445        H  0.05014316  0.20823870  0.95719619     0.16660
O446        O  0.04382744  0.21444696  0.03758242    -0.60380
H447        H  0.01371242  0.19608864  0.03820411     0.43650
H448        H  0.20129230  0.11738975  0.95489000     0.43610
C449        C  0.92203201  0.28435009  0.69009460    -0.05460
C450        C  0.90922589  0.31086936  0.65494093    -0.32890
C451        C  0.86172390  0.32328321  0.64680141     0.36360
C452        C  0.82615607  0.30838012  0.67364495    -0.05810
C453        C  0.83916805  0.28356244  0.70976216    -0.32780
C454        C  0.88681338  0.27136174  0.71805749     0.36270
H455        H  0.93592957  0.32083499  0.63316376     0.16640
O456        O  0.85016730  0.34868633  0.61174395    -0.60280
H457        H  0.81209409  0.27141797  0.73033791     0.16660
O458        O  0.89800369  0.24340994  0.75164971    -0.60380
H459        H  0.90393569  0.26590662  0.77523798     0.43650
H460        H  0.84845939  0.38220311  0.62135960     0.43610
C461        C  0.33114964  0.18900482  0.68814614    -0.05460
C462        C  0.34183172  0.19483212  0.64615448    -0.32890
C463        C  0.38888479  0.20274387  0.63460389     0.36360
C464        C  0.42599781  0.20432315  0.66532774    -0.05810
C465        C  0.41556635  0.19482140  0.70670957    -0.32780
C466        C  0.36874034  0.18732555  0.71829254     0.36270
H467        H  0.31338525  0.19564589  0.62253549     0.16640
O468        O  0.39742858  0.21312688  0.59397075    -0.60280
H469        H  0.44372035  0.19559207  0.73064234     0.16660
O470        O  0.36023691  0.17771861  0.75911752    -0.60380
H471        H  0.36581562  0.20813018  0.77443612     0.43650
H472        H  0.40364179  0.18205350  0.58047158     0.43610
C473        C  0.60296119  0.34736861  0.81818155    -0.05460
C474        C  0.57148591  0.31681900  0.83756405    -0.32890
C475        C  0.56874363  0.31655262  0.88094136     0.36360
C476        C  0.59733768  0.34791369  0.90579851    -0.05810
C477        C  0.62745279  0.37982500  0.88633521    -0.32780
C478        C  0.63076573  0.37953613  0.84292520     0.36270
H479        H  0.54903955  0.29272172  0.81899993     0.16640
O480        O  0.53612814  0.28724656  0.89844351    -0.60280
H481        H  0.64893619  0.40477683  0.90487085     0.16660
O482        O  0.65936391  0.41253881  0.82505000    -0.60380
H483        H  0.69233246  0.40131579  0.83049177     0.43650
H484        H  0.54905943  0.25471761  0.89556297     0.43610
C485        C  0.60368028  0.34986368  0.31755366    -0.05460
C486        C  0.63246212  0.38064329  0.34233552    -0.32890
C487        C  0.63068606  0.38022772  0.38578747     0.36360
C488        C  0.59913149  0.34928325  0.40524633    -0.05810
C489        C  0.56961116  0.31919583  0.38038254    -0.32780
C490        C  0.57222262  0.31883720  0.33691846     0.36270
H491        H  0.65724370  0.40449703  0.32809344     0.16640
O492        O  0.66017277  0.41008413  0.40889593    -0.60280
H493        H  0.54521695  0.29494272  0.39459954     0.16660
O494        O  0.54293479  0.28897320  0.31361940    -0.60380
H495        H  0.55966007  0.25806696  0.31320745     0.43650
H496        H  0.64142077  0.43935311  0.41312066     0.43610
C497        C  0.92056454  0.28092388  0.18599093    -0.05460
C498        C  0.88511173  0.25059324  0.20031777    -0.32890
C499        C  0.83691437  0.25942825  0.19129157     0.36360
C500        C  0.82340113  0.29960848  0.16807530    -0.05810
C501        C  0.85908072  0.33021381  0.15412592    -0.32780
C502        C  0.90736598  0.32087849  0.16270209     0.36270
H503        H  0.89497213  0.21936195  0.21797846     0.16640
O504        O  0.80337166  0.22938787  0.20647718    -0.60280
H505        H  0.84958411  0.36112211  0.13594860     0.16660
O506        O  0.94135124  0.35007111  0.14706359    -0.60380
H507        H  0.94793496  0.37436312  0.16912316     0.43650
H508        H  0.80026154  0.20310338  0.18574467     0.43610
C509        C  0.33432427  0.20798435  0.19456361    -0.05460
C510        C  0.36042804  0.24472078  0.21505746    -0.32890
C511        C  0.40837765  0.25265733  0.20693426     0.36360
C512        C  0.43115222  0.22347509  0.17823771    -0.05810
C513        C  0.40548477  0.18664664  0.15792935    -0.32780
C514        C  0.35756942  0.17855918  0.16599135     0.36270
H515        H  0.34344163  0.26823486  0.23678393     0.16640
O516        O  0.43194519  0.29043561  0.22561020    -0.60280
H517        H  0.42246511  0.16467712  0.13494883     0.16660
O518        O  0.33420273  0.14138989  0.14619967    -0.60380
H519        H  0.32263428  0.15412453  0.11905410     0.43650
H520        H  0.42665479  0.31739895  0.20642363     0.43610
C521        C  0.04579191  0.94418912  0.66772805    -0.05460
C522        C  0.06786494  0.93387887  0.63015871    -0.32890
C523        C  0.04400480  0.90693899  0.59907049     0.36360
C524        C  0.99843374  0.88918590  0.60609063    -0.05810
C525        C  0.97914263  0.89433979  0.64551773    -0.32780
C526        C  0.00227090  0.92237802  0.67615385     0.36270
H527        H  0.10116125  0.95087974  0.62304170     0.16640
O528        O  0.06303801  0.90278292  0.56054201    -0.60280
H529        H  0.94379412  0.88085749  0.65101942     0.16660
O530        O  0.98056222  0.93119486  0.71300168    -0.60380
H531        H  0.95648113  0.95592870  0.70663525     0.43650
H532        H  0.07938589  0.87167556  0.56070216     0.43610
C533        C  0.89966503  0.02027609  0.40691092    -0.05460
C534        C  0.89699381  0.00451952  0.36514501    -0.32890
C535        C  0.91875488  0.02975376  0.33373261     0.36360
C536        C  0.94404976  0.07181704  0.34362634    -0.05810
C537        C  0.94762139  0.08699380  0.38573492    -0.32780
C538        C  0.92591605  0.06145090  0.41723128     0.36270
H539        H  0.87693718  0.97273477  0.35650881     0.16640
O540        O  0.91416758  0.01317505  0.29353216    -0.60280
H541        H  0.96684201  0.11923763  0.39440233     0.16660
O542        O  0.92786509  0.07880627  0.45729823    -0.60380
H543        H  0.95876563  0.06785958  0.46939001     0.43650
H544        H  0.88386145  0.02661075  0.28236189     0.43610
C545        C  0.71800291  0.52974297  0.55099962    -0.05460
C546        C  0.68404780  0.55836831  0.53083507    -0.32890
C547        C  0.69276261  0.60687148  0.52553383     0.36360
C548        C  0.73609033  0.62732117  0.54038225    -0.05810
C549        C  0.77024373  0.59840430  0.56026431    -0.32780
C550        C  0.76141044  0.54988764  0.56554787     0.36270
H551        H  0.64984532  0.54352147  0.52087366     0.16640
O552        O  0.65805822  0.63425312  0.50694348    -0.60280
H553        H  0.80395466  0.61332312  0.57144553     0.16660
O554        O  0.79477620  0.52267383  0.58615169    -0.60380
H555        H  0.81376348  0.50816838  0.56397584     0.43650
H556        H  0.63998756  0.64768214  0.53020515     0.43610
C557        C  0.66668466  0.13441362  0.56277837    -0.05460
C558        C  0.68992004  0.12036056  0.52698721    -0.32890
C559        C  0.69754304  0.07221858  0.51874935     0.36360
C560        C  0.68273783  0.03773697  0.54709620    -0.05810
C561        C  0.66046950  0.05198366  0.58335547    -0.32780
C562        C  0.65176359  0.10002811  0.59100982     0.36270
H563        H  0.70087708  0.14660312  0.50482292     0.16640
O564        O  0.72125249  0.05934886  0.48385755    -0.60280
H565        H  0.65002936  0.02581840  0.60578626     0.16660
O566        O  0.62862495  0.11313292  0.62614395    -0.60380
H567        H  0.65419883  0.12081402  0.64722286     0.43650
H568        H  0.69636556  0.05683253  0.46128017     0.43610
C569        C  0.79048844  0.84648971  0.70055638    -0.05460
C570        C  0.80812219  0.88645502  0.72268345    -0.32890
C571        C  0.81081763  0.88702266  0.76624309     0.36360
C572        C  0.79520008  0.84746794  0.78855560    -0.05810
C573        C  0.77752979  0.80748398  0.76651984    -0.32780
C574        C  0.77467852  0.80694475  0.72289937     0.36270
H575        H  0.82106051  0.91698486  0.70619844     0.16640
O576        O  0.82979285  0.92608767  0.78664958    -0.60280
H577        H  0.76471469  0.77700472  0.78314786     0.16660
O578        O  0.75568681  0.76783547  0.70252831    -0.60380
H579        H  0.72151505  0.77519137  0.69772175     0.43650
H580        H  0.86422906  0.91927536  0.79022064     0.43610
C581        C  0.79473771  0.85769023  0.20129615    -0.05460
C582        C  0.78216912  0.81641200  0.22243555    -0.32890
C583        C  0.78621922  0.81433943  0.26583395     0.36360
C584        C  0.80286354  0.85414690  0.28902104    -0.05810
C585        C  0.81496733  0.89570706  0.26800823    -0.32780
C586        C  0.81107056  0.89770703  0.22446785     0.36270
H587        H  0.76905949  0.78544314  0.20522789     0.16640
O588        O  0.77175425  0.77392822  0.28526516    -0.60280
H589        H  0.82797629  0.92662251  0.28537344     0.16660
O590        O  0.82556359  0.93803320  0.20493684    -0.60380
H591        H  0.79772311  0.95947316  0.20490532     0.43650
H592        H  0.79947352  0.75234613  0.28492614     0.43610
C593        C  0.99768499  0.90587766  0.09456749    -0.05460
C594        C  0.98789828  0.90060948  0.13676508    -0.32890
C595        C  0.01447974  0.92559807  0.16746987     0.36360
C596        C  0.05192042  0.95539265  0.15610069    -0.05810
C597        C  0.06445325  0.95714328  0.11423672    -0.32780
C598        C  0.03711156  0.93299706  0.08340439     0.36270
H599        H  0.95699856  0.88047613  0.14559660     0.16640
O600        O  0.00073243  0.92434892  0.20795016    -0.60280
H601        H  0.09245599  0.98090133  0.10495225     0.16660
O602        O  0.04645346  0.93965219  0.04230040    -0.60380
H603        H  0.06694295  0.91262303  0.03463574     0.43650
H604        H  0.02036085  0.89916478  0.22119448     0.43610
C605        C  0.93251752  0.07356823  0.84039787    -0.05460
C606        C  0.92957460  0.09286698  0.88096798    -0.32890
C607        C  0.90614765  0.06857972  0.91200081     0.36360
C608        C  0.88456494  0.02470739  0.90256867    -0.05810
C609        C  0.88764999  0.00516865  0.86238761    -0.32780
C610        C  0.91172726  0.02888052  0.83151671     0.36270
H611        H  0.94521481  0.12718825  0.88878548     0.16640
O612        O  0.90202198  0.08932784  0.95050283    -0.60280
H613        H  0.87116699  0.97116998  0.85487527     0.16660
O614        O  0.91384966  0.00820196  0.79285329    -0.60380
H615        H  0.94133746  0.98632780  0.79479222     0.43650
H616        H  0.93188009  0.08138445  0.96616130     0.43610
C617        C  0.73597627  0.63901609  0.05823576    -0.05460
C618        C  0.68910365  0.62272891  0.05650088    -0.32890
C619        C  0.67909291  0.57453292  0.06013860     0.36360
C620        C  0.71667956  0.54156371  0.06434920    -0.05810
C621        C  0.76361511  0.55820086  0.06846157    -0.32780
C622        C  0.77346003  0.60685568  0.06561342     0.36270
H623        H  0.66009616  0.64745260  0.05151934     0.16640
O624        O  0.63241684  0.56024800  0.06082597    -0.60280
H625        H  0.79263671  0.53337910  0.07269021     0.16660
O626        O  0.81982881  0.62213223  0.06699969    -0.60380
H627        H  0.82761625  0.62855727  0.09687910     0.43650
H628        H  0.61923345  0.56487966  0.03211831     0.43610
C629        C  0.65592823  0.13644885  0.04512551    -0.05460
C630        C  0.61787515  0.10403373  0.04597293    -0.32890
C631        C  0.62625412  0.05520312  0.04282416     0.36360
C632        C  0.67295587  0.03905048  0.03901781    -0.05810
C633        C  0.71032512  0.07186033  0.03548128    -0.32780
C634        C  0.70204545  0.12031866  0.03877933     0.36270
H635        H  0.58220640  0.11644847  0.05132772     0.16640
O636        O  0.58931880  0.02369126  0.04604253    -0.60280
H637        H  0.74634959  0.05978360  0.03120474     0.16660
O638        O  0.73947588  0.15158687  0.03751384    -0.60380
H639        H  0.74111671  0.16057786  0.00785329     0.43650
H640        H  0.57752158  0.01761951  0.01701420     0.43610
C641        C  0.39468898  0.40450221  0.02306745    -0.05460
C642        C  0.36855685  0.44422178  0.03513694    -0.32890
C643        C  0.34407096  0.47142908  0.00536528     0.36360
C644        C  0.34583644  0.45897922  0.96290094    -0.05810
C645        C  0.36871666  0.41722303  0.95109530    -0.32780
C646        C  0.39271014  0.38957717  0.98098671     0.36270
H647        H  0.37050835  0.45649212  0.06724831     0.16640
O648        O  0.32211239  0.51242365  0.01763167    -0.60280
H649        H  0.37082901  0.40787860  0.91841506     0.16660
O650        O  0.41909293  0.35176738  0.96799576    -0.60380
H651        H  0.39719131  0.32410551  0.96836414     0.43650
H652        H  0.34711515  0.53738000  0.01765547     0.43610
C653        C  0.48384716  0.58196141  0.78430279    -0.05460
C654        C  0.48682938  0.53258680  0.78758855    -0.32890
C655        C  0.51067140  0.50603585  0.75777894     0.36360
C656        C  0.53252056  0.52905247  0.72453668    -0.05810
C657        C  0.53363763  0.57861396  0.72369489    -0.32780
C658        C  0.50959088  0.60513911  0.75336902     0.36270
H659        H  0.46782631  0.51426680  0.81140373     0.16640
O660        O  0.51146859  0.45745478  0.76073204    -0.60280
H661        H  0.55088021  0.59669168  0.69872136     0.16660
O662        O  0.50958838  0.65369570  0.75061318    -0.60380
H663        H  0.53434714  0.66477756  0.77127131     0.43650
H664        H  0.47954611  0.44651940  0.75048672     0.43610
C665        C  0.47753138  0.78298075  0.91706426    -0.05460
C666        C  0.49059921  0.82396778  0.93958056    -0.32890
C667        C  0.53869095  0.83448923  0.94848011     0.36360
C668        C  0.57453887  0.80330892  0.93508029    -0.05810
C669        C  0.56111562  0.76212273  0.91261183    -0.32780
C670        C  0.51307241  0.75190872  0.90352431     0.36270
H671        H  0.46345517  0.84736933  0.95107226     0.16640
O672        O  0.55001765  0.87394475  0.97228760    -0.60280
H673        H  0.58792662  0.73798238  0.90168840     0.16660
O674        O  0.50106882  0.71150483  0.88120000    -0.60380
H675        H  0.50007930  0.68585919  0.90204720     0.43650
H676        H  0.54325989  0.90142492  0.95400007     0.43610
C677        C  0.97161486  0.72990737  0.93658760    -0.05460
C678        C  0.00921207  0.73491333  0.96663041    -0.32890
C679        C  0.05600665  0.72396254  0.95734786     0.36360
C680        C  0.06652729  0.70761131  0.91740762    -0.05810
C681        C  0.02945457  0.70293722  0.88698869    -0.32780
C682        C  0.98220663  0.71366496  0.89637653     0.36270
H683        H  0.00260133  0.74765424  0.99780356     0.16640
O684        O  0.09134487  0.73012206  0.98748645    -0.60280
H685        H  0.03700419  0.69007132  0.85604163     0.16660
O686        O  0.94688131  0.70692048  0.86640051    -0.60380
H687        H  0.94667474  0.73636442  0.84976915     0.43650
H688        H  0.10337192  0.76289805  0.98370464     0.43610
C689        C  0.18943361  0.46945217  0.79397115    -0.05460
C690        C  0.14932626  0.45563006  0.76977828    -0.32890
C691        C  0.13903318  0.40719723  0.76257765     0.36360
C692        C  0.16946385  0.37176420  0.77943031    -0.05810
C693        C  0.21211808  0.38597909  0.79976049    -0.32780
C694        C  0.22202045  0.43423851  0.80744125     0.36270
H695        H  0.12416546  0.48213856  0.75891187     0.16640
O696        O  0.09905908  0.39492801  0.73911905    -0.60280
H697        H  0.23659329  0.35961239  0.81205552     0.16660
O698        O  0.26333960  0.44678658  0.82895320    -0.60380
H699        H  0.25996829  0.43476902  0.85760217     0.43650
H700        H  0.07180582  0.40442220  0.75603151     0.43610
C701        C  0.22179114  0.97227352  0.81599982    -0.05460
C702        C  0.25988973  0.95061068  0.79647560    -0.32890
C703        C  0.26706689  0.90157176  0.79860228     0.36360
C704        C  0.23520409  0.87252285  0.81989270    -0.05810
C705        C  0.19725845  0.89414431  0.84010274    -0.32780
C706        C  0.19065680  0.94376504  0.83849806     0.36270
H707        H  0.28299530  0.97164536  0.77758874     0.16640
O708        O  0.30332985  0.88196257  0.77688304    -0.60280
H709        H  0.17251394  0.87255308  0.85680058     0.16660
O710        O  0.15176551  0.96347497  0.85632450    -0.60380
H711        H  0.16357124  0.97548618  0.88394226     0.43650
H712        H  0.33227320  0.88658070  0.79503126     0.43610
C713        C  0.30205551  0.65663295  0.57110463    -0.05460
C714        C  0.25663570  0.65550071  0.58786739    -0.32890
C715        C  0.25078226  0.65176933  0.63070456     0.36360
C716        C  0.29090611  0.64958484  0.65812256    -0.05810
C717        C  0.33640214  0.65026181  0.64143477    -0.32780
C718        C  0.34224287  0.65368867  0.59842699     0.36270
H719        H  0.22510022  0.65774938  0.56763249     0.16640
O720        O  0.20562706  0.65261597  0.64523787    -0.60280
H721        H  0.36778788  0.64828042  0.66188437     0.16660
O722        O  0.38729339  0.65263196  0.58368792    -0.60380
H723        H  0.39952152  0.68558125  0.58714344     0.43650
H724        H  0.19328302  0.61978409  0.64111070     0.43610
C725        C  0.28903559  0.66624834  0.15839637    -0.05460
C726        C  0.24725166  0.65754781  0.13428226    -0.32890
C727        C  0.24735306  0.65818230  0.09076886     0.36360
C728        C  0.28996459  0.66708239  0.07025994    -0.05810
C729        C  0.33173704  0.67597553  0.09439827    -0.32780
C730        C  0.33161515  0.67536125  0.13793851     0.36270
H731        H  0.21399308  0.65063927  0.14899336     0.16640
O732        O  0.20551507  0.64941530  0.06874796    -0.60280
H733        H  0.36499401  0.68292649  0.07970609     0.16660
O734        O  0.37345100  0.68388288  0.16004633    -0.60380
H735        H  0.38851769  0.65231822  0.16331708     0.43650
H736        H  0.19061280  0.68098121  0.06493534     0.43610
C737        C  0.35705402  0.46405350  0.45808649    -0.05460
C738        C  0.37944915  0.42239207  0.44617223    -0.32890
C739        C  0.40453297  0.39544428  0.47562414     0.36360
C740        C  0.40792525  0.41072306  0.51786561    -0.05810
C741        C  0.38253682  0.45092529  0.53006513    -0.32780
C742        C  0.35703542  0.47753816  0.50043057     0.36270
H743        H  0.37970164  0.41206256  0.41358328     0.16640
O744        O  0.42708721  0.35526942  0.46227534    -0.60280
H745        H  0.38422808  0.46311511  0.56215345     0.16660
O746        O  0.33587095  0.51898134  0.51254295    -0.60380
H747        H  0.30272452  0.50998731  0.51851560     0.43650
H748        H  0.45590545  0.36676829  0.44853666     0.43610
C749        C  0.46642920  0.57594537  0.26802894    -0.05460
C750        C  0.44740747  0.57002958  0.22725786    -0.32890
C751        C  0.47170663  0.54449798  0.19726533     0.36360
C752        C  0.51607733  0.52418332  0.20777157    -0.05810
C753        C  0.53450656  0.52925607  0.24904790    -0.32780
C754        C  0.50987615  0.55462226  0.27909287     0.36270
H755        H  0.41350806  0.58569331  0.21835242     0.16640
O756        O  0.45134764  0.53959730  0.15807752    -0.60280
H757        H  0.56850451  0.51395075  0.25814388     0.16660
O758        O  0.52992905  0.56076481  0.31832176    -0.60380
H759        H  0.51955874  0.53275820  0.33413412     0.43650
H760        H  0.45973184  0.56912933  0.14344196     0.43610
C761        C  0.48707831  0.78847784  0.41993616    -0.05460
C762        C  0.50584841  0.79224470  0.46093848    -0.32890
C763        C  0.55449698  0.80028274  0.46878664     0.36360
C764        C  0.58507662  0.80398220  0.43541841    -0.05810
C765        C  0.56666260  0.80045427  0.39451155    -0.32780
C766        C  0.51800218  0.79283558  0.38651003     0.36270
H767        H  0.48279145  0.78804751  0.48694170     0.16640
O768        O  0.57186985  0.80435095  0.50910286    -0.60280
H769        H  0.59014904  0.80347732  0.36867381     0.16660
O770        O  0.50180879  0.78650230  0.34607171    -0.60380
H771        H  0.49904635  0.81894993  0.33459148     0.43650
H772        H  0.58165762  0.77179464  0.51700099     0.43610
C773        C  0.97943554  0.72804032  0.43917401    -0.05460
C774        C  0.01024057  0.71039381  0.47075779    -0.32890
C775        C  0.05816319  0.70172427  0.46381571     0.36360
C776        C  0.07651044  0.71061751  0.42451465    -0.05810
C777        C  0.04581384  0.72899270  0.39299231    -0.32780
C778        C  0.99774992  0.73783380  0.40010665     0.36270
H779        H  0.99722312  0.70352015  0.50144539     0.16640
O780        O  0.08685618  0.68627807  0.49622994    -0.60280
H781        H  0.05901072  0.73660660  0.36252824     0.16660
O782        O  0.96958749  0.75709305  0.36903252    -0.60380
H783        H  0.97233963  0.79195757  0.37325345     0.43650
H784        H  0.07855334  0.65229156  0.49955558     0.43610
C785        C  0.16924789  0.38057049  0.28110892    -0.05460
C786        C  0.13594845  0.41525868  0.26807435    -0.32890
C787        C  0.14588652  0.46417254  0.27280849     0.36360
C788        C  0.18950859  0.47934155  0.29110114    -0.05810
C789        C  0.22407822  0.44484486  0.30104269    -0.32780
C790        C  0.21450448  0.39610015  0.29590564     0.36270
H791        H  0.10118126  0.40459590  0.25574224     0.16640
O792        O  0.11095861  0.49646967  0.26340877    -0.60280
H793        H  0.25782277  0.45568597  0.31557770     0.16660
O794        O  0.24834218  0.36413187  0.30890499    -0.60380
H795        H  0.26773741  0.35817407  0.28425118     0.43650
H796        H  0.11709642  0.50677754  0.23469197     0.43610
C797        C  0.22828311  0.97838863  0.31061902    -0.05460
C798        C  0.22344649  0.96122977  0.35119415    -0.32890
C799        C  0.22974378  0.91242627  0.35971016     0.36360
C800        C  0.24047926  0.88026156  0.32741068    -0.05810
C801        C  0.24687853  0.89761817  0.28757384    -0.32780
C802        C  0.24088568  0.94571295  0.27892052     0.36270
H803        H  0.21379944  0.98528645  0.37598210     0.16640
O804        O  0.22515793  0.89653256  0.39951965    -0.60280
H805        H  0.25662561  0.87357244  0.26275070     0.16660
O806        O  0.24844017  0.96048448  0.23912854    -0.60380
H807        H  0.21995393  0.94991203  0.22235439     0.43650
H808        H  0.25765041  0.89834765  0.41247513     0.43610
loop_ 
_geom_bond_atom_site_label_1 
_geom_bond_atom_site_label_2 
_geom_bond_distance 
_geom_bond_site_symmetry_2 
_ccdc_geom_bond_type 
C1           N19   1.348       .  A
C1           C38   1.472       .  S
C1          C800   1.480       .  S
N2           N19   1.323       .  A
N2           N24   1.324       .  A
N2          Co39   2.075       .  S
C3           N28   1.329       .  A
C3           C41   1.440       .  S
C3           H48   1.081       .  S
H4           C45   1.080       .  S
C5           N29   1.344       .  A
C5            C9   1.471       .  S
C5           H34   1.080       .  S
Co6          N24   2.133       .  S
Co6          N14   2.064       .  S
Co6          N46   2.067       .  S
Co6          N22   2.149       .  S
Co6         Cl50   2.450       .  S
N7           C45   1.343       .  A
N7           N14   1.316       .  A
N7           Co8   2.083       .  S
Co8          N11   2.068       .  S
Co8          N28   2.054       .  S
Co8          N15   2.075       .  S
Co8         Cl50   2.444       .  S
C9           N47   1.348       .  A
C9          C713   1.484       .  S
N10          N17   1.317       .  A
N10          N40   1.321       .  A
N10         Co43   2.066       .  S
N11          N29   1.322       .  A
N11          N47   1.319       .  A
N12          C41   1.367       .  A
N12          N22   1.339       .  A
H13          C38   1.081       .  S
N14          N35   1.321       .  A
N15          N33   1.315       .  A
N15          N20   1.322       .  A
C16          N20   1.348       .  A
C16          C44   1.456       .  S
C16         C737   1.459       .  S
N17          C32   1.341       .  A
N17         Co39   2.080       .  S
C18          N46   1.341       .  A
C18          C21   1.464       .  S
C18          H52   1.081       .  S
C21          N42   1.349       .  A
C21         C725   1.483       .  S
N22          N28   1.322       .  A
N23          C49   1.330       .  A
N23          N25   1.321       .  A
N23         Co39   2.056       .  S
N24          C38   1.349       .  A
N25          N53   1.330       .  A
N25         Co43   2.115       .  S
H26          C49   1.081       .  S
H27          C44   1.082       .  S
N29         Co43   2.109       .  S
N30          N42   1.323       .  A
N30          N46   1.315       .  A
N30         Co39   2.081       .  S
C31          N35   1.347       .  A
C31          C45   1.472       .  S
C31         C776   1.486       .  S
C32          C51   1.467       .  S
C32          H36   1.081       .  S
N33          C44   1.334       .  A
N33         Co43   2.054       .  S
C37          N53   1.358       .  A
C37          C49   1.446       .  S
C37         C749   1.473       .  S
Co39        Cl50   2.446       .  S
N40          C51   1.347       .  A
C41         C788   1.488       .  S
Co43        Cl50   2.443       .  S
C51         C761   1.477       .  S
C54          N72   1.350   1_554  A
C54          C91   1.466   1_554  S
C54         C728   1.485       .  S
N55          N72   1.322       .  A
N55          N77   1.322       .  A
N55         Co92   2.074       .  S
C56          N81   1.331       .  A
C56          C94   1.448       .  S
C56         H101   1.081       .  S
H57          C98   1.082       .  S
C58          N82   1.352       .  A
C58          C62   1.474       .  S
C58          H87   1.081       .  S
Co59         N77   2.101       .  S
Co59         N67   2.066       .  S
Co59         N99   2.067       .  S
Co59         N75   2.120       .  S
Co59       Cl103   2.440       .  S
N60          C98   1.344       .  A
N60          N67   1.317       .  A
N60         Co61   2.085       .  S
Co61         N64   2.076       .  S
Co61         N81   2.053       .  S
Co61         N68   2.074       .  S
Co61       Cl103   2.448       .  S
C62         N100   1.346       .  A
C62         C704   1.489       .  S
N63          N70   1.319       .  A
N63          N93   1.324       .  A
N63         Co96   2.074       .  S
N64          N82   1.324       .  A
N64         N100   1.321       .  A
N65          C94   1.360       .  A
N65          N75   1.331       .  A
H66          C91   1.081   1_554  S
N67          N88   1.320       .  A
N68          N86   1.316       .  A
N68          N73   1.323       .  A
C69          N73   1.349       .  A
C69          C97   1.467       .  S
C69         C716   1.483       .  S
N70          C85   1.344       .  A
N70         Co92   2.090       .  S
C71          N99   1.337       .  A
C71          C74   1.460       .  S
C71         H105   1.082       .  S
C74          N95   1.349       .  A
C74         C644   1.466       .  S
N75          N81   1.320       .  A
N76         C102   1.329       .  A
N76          N78   1.322       .  A
N76         Co92   2.057       .  S
N77          C91   1.341       .  A
N78         N106   1.336       .  A
N78         Co96   2.136       .  S
H79         C102   1.080       .  S
H80          C97   1.080       .  S
N82         Co96   2.130       .  S
N83          N95   1.324       .  A
N83          N99   1.316       .  A
N83         Co92   2.083       .  S
C84          N88   1.346       .  A
C84          C98   1.467       .  S
C84         C665   1.471       .  S
C85         C104   1.466       .  S
C85          H89   1.082       .  S
N86          C97   1.341       .  A
N86         Co96   2.075       .  S
C90         N106   1.364       .  A
C90         C102   1.442       .  S
C90         C689   1.484       .  S
Co92       Cl103   2.450       .  S
N93         C104   1.346       .  A
C94         C653   1.477       .  S
Co96       Cl103   2.454       .  S
C104        C680   1.479       .  S
C107        N125   1.341       .  A
C107        C144   1.481       .  S
C107        C677   1.490       .  S
N108        N125   1.315       .  A
N108        N130   1.321       .  A
N108       Co145   2.053   1_556  S
C109        N134   1.334       .  A
C109        C147   1.453       .  S
C109        H154   1.081       .  S
H110        C151   1.081       .  S
C111        N135   1.347       .  A
C111        C115   1.468   1_565  S
C111        H140   1.081   1_565  S
Co112       N130   2.127       .  S
Co112       N120   2.083       .  S
Co112       N152   2.074   1_556  S
Co112       N128   2.120       .  S
Co112      Cl156   2.457       .  S
N113        C151   1.338       .  A
N113        N120   1.317       .  A
N113       Co114   2.076       .  S
Co114       N117   2.048       .  S
Co114       N134   2.059       .  S
Co114       N121   2.071   1_556  S
Co114      Cl156   2.435       .  S
C115        N153   1.339   1_545  A
C115        C608   1.467       .  S
N116        N123   1.316       .  A
N116        N146   1.321       .  A
N116       Co149   2.071       .  S
N117        N135   1.320       .  A
N117        N153   1.316       .  A
N118        C147   1.360       .  A
N118        N128   1.330       .  A
H119        C144   1.081       .  S
N120        N141   1.326       .  A
N121        N139   1.316       .  A
N121        N126   1.322       .  A
C122        N126   1.350       .  A
C122        C150   1.461       .  S
C122        C632   1.462   1_565  S
N123        C138   1.341       .  A
N123       Co145   2.081       .  S
C124        N152   1.335       .  A
C124        C127   1.455       .  S
C124        H158   1.082   1_554  S
C127        N148   1.347       .  A
C127        C617   1.461       .  S
N128        N134   1.320       .  A
N129        C155   1.335       .  A
N129        N131   1.320       .  A
N129       Co145   2.067       .  S
N130        C144   1.353       .  A
N131        N159   1.326       .  A
N131       Co149   2.099       .  S
H132        C155   1.082       .  S
H133        C150   1.082       .  S
N135       Co149   2.103   1_556  S
N136        N148   1.323       .  A
N136        N152   1.319       .  A
N136       Co145   2.067       .  S
C137        N141   1.353       .  A
C137        C151   1.456       .  S
C137        C572   1.478       .  S
C138        C157   1.462       .  S
C138        H142   1.082       .  S
N139        C150   1.332       .  A
N139       Co149   2.066       .  S
C143        N159   1.354       .  A
C143        C155   1.457       .  S
C143        C581   1.478       .  S
Co145      Cl156   2.439   1_554  S
N146        C157   1.350       .  A
C147        C668   1.484       .  S
Co149      Cl156   2.446   1_554  S
C157        C593   1.466       .  S
C160        N178   1.339       .  A
C160        C197   1.478       .  S
C160        C773   1.480       .  S
N161        N178   1.315       .  A
N161        N183   1.322       .  A
N161       Co198   2.051       .  S
C162        N187   1.336       .  A
C162        C200   1.449       .  S
C162        H207   1.081       .  S
H163        C204   1.082       .  S
C164        N188   1.354       .  A
C164        C168   1.477       .  S
C164        H193   1.081       .  S
Co165       N183   2.123       .  S
Co165       N173   2.076       .  S
Co165       N205   2.067       .  S
Co165       N181   2.106       .  S
Co165      Cl209   2.444       .  S
N166        C204   1.338       .  A
N166        N173   1.316       .  A
N166       Co167   2.071       .  S
Co167       N170   2.047       .  S
Co167       N187   2.067       .  S
Co167       N174   2.075       .  S
Co167      Cl209   2.442       .  S
C168        N206   1.338       .  A
C168        C533   1.479   1_565  S
N169        N176   1.315       .  A
N169        N199   1.319       .  A
N169       Co202   2.062       .  S
N170        N188   1.320       .  A
N170        N206   1.315       .  A
N171        C200   1.352       .  A
N171        N181   1.327       .  A
H172        C197   1.081       .  S
N173        N194   1.324       .  A
N174        N192   1.315       .  A
N174        N179   1.323       .  A
C175        N179   1.352       .  A
C175        C203   1.454       .  S
C175        C560   1.465   1_565  S
N176        C191   1.340       .  A
N176       Co198   2.078       .  S
C177        N205   1.335       .  A
C177        C180   1.453       .  S
C177        H211   1.081       .  S
C180        N201   1.355       .  A
C180        C548   1.478       .  S
N181        N187   1.322       .  A
N182        C208   1.338       .  A
N182        N184   1.322       .  A
N182       Co198   2.073       .  S
N183        C197   1.352       .  A
N184        N212   1.325       .  A
N184       Co202   2.110       .  S
H185        C208   1.081       .  S
H186        C203   1.082       .  S
N188       Co202   2.125       .  S
N189        N201   1.327       .  A
N189        N205   1.318       .  A
N189       Co198   2.087       .  S
C190        N194   1.352       .  A
C190        C204   1.455       .  S
C190        C584   1.476       .  S
C191        C210   1.460       .  S
C191        H195   1.082       .  S
N192        C203   1.335       .  A
N192       Co202   2.063       .  S
C196        N212   1.354       .  A
C196        C208   1.460       .  S
C196        C569   1.480       .  S
Co198      Cl209   2.450       .  S
N199        C210   1.349       .  A
C200        C764   1.464       .  S
Co202      Cl209   2.437       .  S
C210        C524   1.460       .  S
C213        N231   1.344       .  A
C213        C250   1.474       .  S
C213        C752   1.483       .  S
N214        N231   1.318       .  A
N214        N236   1.319       .  A
N214       Co251   2.054       .  S
C215        N240   1.334   1_556  A
C215        C253   1.455       .  S
C215        H260   1.081       .  S
H216        C257   1.082       .  S
C217        N241   1.350       .  A
C217        C221   1.470       .  S
C217        H246   1.081       .  S
Co218       N236   2.104       .  S
Co218       N226   2.067       .  S
Co218       N258   2.064       .  S
Co218       N234   2.105       .  S
Co218      Cl262   2.430       .  S
N219        C257   1.342       .  A
N219        N226   1.315       .  A
N219       Co220   2.078       .  S
Co220       N223   2.053       .  S
Co220       N240   2.062       .  S
Co220       N227   2.061       .  S
Co220      Cl262   2.452       .  S
C221        N259   1.339       .  A
C221        C512   1.468       .  S
N222        N229   1.317       .  A
N222        N252   1.326       .  A
N222       Co255   2.079       .  S
N223        N241   1.322       .  A
N223        N259   1.318       .  A
N224        C253   1.356       .  A
N224        N234   1.328   1_556  A
H225        C250   1.080       .  S
N226        N247   1.319       .  A
N227        N245   1.319       .  A
N227        N232   1.322       .  A
C228        N232   1.345       .  A
C228        C256   1.455       .  S
C228        C629   1.455       .  S
N229        C244   1.338       .  A
N229       Co251   2.078       .  S
C230        N258   1.332       .  A
C230        C233   1.458       .  S
C230        H264   1.082       .  S
C233        N254   1.351       .  A
C233        C620   1.472       .  S
N234        N240   1.319       .  A
N235        C261   1.338       .  A
N235        N237   1.321       .  A
N235       Co251   2.069       .  S
N236        C250   1.344       .  A
N237        N265   1.328       .  A
N237       Co255   2.117       .  S
H238        C261   1.082       .  S
H239        C256   1.082       .  S
N241       Co255   2.119       .  S
N242        N254   1.324       .  A
N242        N258   1.317       .  A
N242       Co251   2.077       .  S
C243        N247   1.347       .  A
C243        C257   1.465       .  S
C243        C641   1.468       .  S
C244        C263   1.457       .  S
C244        H248   1.081       .  S
N245        C256   1.335       .  A
N245       Co255   2.076       .  S
C249        N265   1.357       .  A
C249        C261   1.456       .  S
C249        C500   1.484       .  S
Co251      Cl262   2.451       .  S
N252        C263   1.352       .  A
C253        C476   1.479       .  S
Co255      Cl262   2.443       .  S
C263        C485   1.478       .  S
C266        N284   1.344       .  A
C266        C303   1.466       .  S
C266        C656   1.475       .  S
N267        N284   1.318       .  A
N267        N289   1.319       .  A
N267       Co304   2.058       .  S
C268        N293   1.335       .  A
C268        C306   1.453       .  S
C268        H313   1.082       .  S
H269        C310   1.081       .  S
C270        N294   1.341       .  A
C270        C274   1.461       .  S
C270        H299   1.081       .  S
Co271       N289   2.095       .  S
Co271       N279   2.066       .  S
Co271       N311   2.063       .  S
Co271       N287   2.097       .  S
Co271      Cl315   2.454       .  S
N272        C310   1.349       .  A
N272        N279   1.324       .  A
N272       Co273   2.113       .  S
Co273       N276   2.074       .  S
Co273       N293   2.068       .  S
Co273       N280   2.112       .  S
Co273      Cl315   2.449       .  S
C274        N312   1.351       .  A
C274        C488   1.480       .  S
N275        N282   1.319       .  A
N275        N305   1.314       .  A
N275       Co308   2.037       .  S
N276        N294   1.318       .  A
N276        N312   1.325       .  A
N277        C306   1.354       .  A
N277        N287   1.329       .  A
H278        C303   1.082       .  S
N279        N300   1.319       .  A
N280        N298   1.322       .  A
N280        N285   1.328       .  A
C281        N285   1.354       .  A
C281        C309   1.445       .  S
C281        C557   1.462       .  S
N282        C297   1.349       .  A
N282       Co304   2.116       .  S
C283        N311   1.336       .  A
C283        C286   1.458       .  S
C283        H317   1.081       .  S
C286        N307   1.354       .  A
C286        C473   1.478       .  S
N287        N293   1.319       .  A
N288        C314   1.333       .  A
N288        N290   1.316       .  A
N288       Co304   2.060       .  S
N289        C303   1.346       .  A
N290        N318   1.328       .  A
N290       Co308   2.089       .  S
H291        C314   1.082       .  S
H292        C309   1.082       .  S
N294       Co308   2.087       .  S
N295        N307   1.325       .  A
N295        N311   1.321       .  A
N295       Co304   2.105       .  S
C296        N300   1.341       .  A
C296        C310   1.467       .  S
C296        C545   1.466       .  S
C297        C316   1.476       .  S
C297        H301   1.081       .  S
N298        C309   1.331       .  A
N298       Co308   2.050       .  S
C302        N318   1.356       .  A
C302        C314   1.454       .  S
C302        C464   1.478       .  S
Co304      Cl315   2.429       .  S
N305        C316   1.339       .  A
C306        C452   1.474       .  S
Co308      Cl315   2.453       .  S
C316        C740   1.478       .  S
C319        N337   1.336       .  A
C319        C356   1.490       .  S
C319        C797   1.496   1_545  S
N320        N337   1.312       .  A
N320        N342   1.322       .  A
N320       Co357   2.045       .  S
C321        N346   1.340       .  A
C321        C359   1.460       .  S
C321        H366   1.081       .  S
H322        C363   1.081       .  S
C323        N347   1.349   1_655  A
C323        C327   1.478       .  S
C323        H352   1.080       .  S
Co324       N342   2.154       .  S
Co324       N332   2.079       .  S
Co324       N364   2.069       .  S
Co324       N340   2.139       .  S
Co324      Cl368   2.450       .  S
N325        C363   1.339       .  A
N325        N332   1.316       .  A
N325       Co326   2.078       .  S
Co326       N329   2.059       .  S
Co326       N346   2.082       .  S
Co326       N333   2.092       .  S
Co326      Cl368   2.456       .  S
C327        N365   1.343       .  A
C327        C536   1.489       .  S
N328        N335   1.315       .  A
N328        N358   1.320       .  A
N328       Co361   2.062       .  S
N329        N347   1.320       .  A
N329        N365   1.319   1_455  A
N330        C359   1.361       .  A
N330        N340   1.332       .  A
H331        C356   1.081       .  S
N332        N353   1.326       .  A
N333        N351   1.316       .  A
N333        N338   1.327   1_455  A
C334        N338   1.356       .  A
C334        C362   1.455       .  S
C334        C497   1.474       .  S
N335        C350   1.343       .  A
N335       Co357   2.084       .  S
C336        N364   1.336       .  A
C336        C339   1.456       .  S
C336        H370   1.081       .  S
C339        N360   1.356       .  A
C339        C509   1.485       .  S
N340        N346   1.324       .  A
N341        C367   1.336       .  A
N341        N343   1.323       .  A
N341       Co357   2.067       .  S
N342        C356   1.362       .  A
N343        N371   1.328       .  A
N343       Co361   2.117       .  S
H344        C367   1.082       .  S
H345        C362   1.082       .  S
N347       Co361   2.120       .  S
N348        N360   1.327       .  A
N348        N364   1.318       .  A
N348       Co357   2.090       .  S
C349        N353   1.354       .  A
C349        C363   1.457       .  S
C349        C428   1.485       .  S
C350        C369   1.464   1_545  S
C350        H354   1.081   1_545  S
N351        C362   1.335   1_455  A
N351       Co361   2.063       .  S
C355        N371   1.356       .  A
C355        C367   1.457       .  S
C355        C437   1.481       .  S
Co357      Cl368   2.452       .  S
N358        C369   1.347   1_545  A
C359        C785   1.499       .  S
Co361      Cl368   2.434       .  S
C369        C596   1.468       .  S
C372        N390   1.338       .  A
C372        C409   1.478       .  S
C372        C701   1.479   1_545  S
N373        N390   1.317       .  A
N373        N395   1.323       .  A
N373       Co410   2.059       .  S
C374        N399   1.335       .  A
C374        C412   1.456       .  S
C374        H419   1.080       .  S
H375        C416   1.081       .  S
C376        N400   1.345   1_655  A
C376        C380   1.474       .  S
C376        H405   1.080       .  S
Co377       N395   2.135       .  S
Co377       N385   2.089       .  S
Co377       N417   2.086       .  S
Co377       N393   2.133       .  S
Co377      Cl421   2.455       .  S
N378        C416   1.338       .  A
N378        N385   1.316       .  A
N378       Co379   2.069       .  S
Co379       N382   2.056       .  S
Co379       N399   2.069       .  S
Co379       N386   2.078       .  S
Co379      Cl421   2.443       .  S
C380        N418   1.343       .  A
C380        C605   1.481       .  S
N381        N388   1.314       .  A
N381        N411   1.321       .  A
N381       Co414   2.071       .  S
N382        N400   1.319       .  A
N382        N418   1.317   1_455  A
N383        C412   1.361       .  A
N383        N393   1.331       .  A
H384        C409   1.081       .  S
N385        N406   1.328       .  A
N386        N404   1.317       .  A
N386        N391   1.325   1_455  A
C387        N391   1.350       .  A
C387        C415   1.460       .  S
C387        C449   1.474       .  S
N388        C403   1.339       .  A
N388       Co410   2.066       .  S
C389        N417   1.338       .  A
C389        C392   1.462       .  S
C389        H423   1.081       .  S
C392        N413   1.351       .  A
C392        C461   1.481       .  S
N393        N399   1.323       .  A
N394        C420   1.336       .  A
N394        N396   1.322       .  A
N394       Co410   2.074       .  S
N395        C409   1.356       .  A
N396        N424   1.327       .  A
N396       Co414   2.110       .  S
H397        C420   1.081       .  S
H398        C415   1.082       .  S
N400       Co414   2.104       .  S
N401        N413   1.327       .  A
N401        N417   1.318       .  A
N401       Co410   2.076       .  S
C402        N406   1.355       .  A
C402        C416   1.455       .  S
C402        C440   1.483       .  S
C403        C422   1.458   1_545  S
C403        H407   1.082   1_545  S
N404        C415   1.339   1_455  A
N404       Co414   2.078       .  S
C408        N424   1.356       .  A
C408        C420   1.459       .  S
C408        C425   1.487       .  S
Co410      Cl421   2.445       .  S
N411        C422   1.350   1_545  A
C412        C692   1.490       .  S
Co414      Cl421   2.447       .  S
C422        C521   1.465       .  S
C425        C426   1.407       .  A
C425        C430   1.410       .  A
C426        H431   1.082       .  S
C426        C427   1.400       .  A
C427        C428   1.409       .  A
C427        O432   1.371       .  S
C428        C429   1.407       .  A
C429        H433   1.083       .  S
C429        C430   1.402       .  A
C430        O434   1.371       .  S
O432        H436   0.992       .  S
O434        H435   0.992       .  S
C437        C438   1.407       .  A
C437        C442   1.405       .  A
C438        H443   1.083       .  S
C438        C439   1.402   1_554  A
C439        C440   1.407       .  A
C439        O444   1.372       .  S
C440        C441   1.408       .  A
C441        H445   1.082       .  S
C441        C442   1.401   1_556  A
C442        O446   1.372       .  S
O444        H448   0.992       .  S
O446        H447   0.992       .  S
C449        C450   1.399       .  A
C449        C454   1.412       .  A
C450        H455   1.084       .  S
C450        C451   1.400       .  A
C451        C452   1.411       .  A
C451        O456   1.372       .  S
C452        C453   1.400       .  A
C453        H457   1.084       .  S
C453        C454   1.403       .  A
C454        O458   1.372       .  S
O456        H460   0.992       .  S
O458        H459   0.991       .  S
C461        C462   1.405       .  A
C461        C466   1.410       .  A
C462        H467   1.084       .  S
C462        C463   1.406       .  A
C463        C464   1.411       .  A
C463        O468   1.371       .  S
C464        C465   1.401       .  A
C465        H469   1.084       .  S
C465        C466   1.398       .  A
C466        O470   1.372       .  S
O468        H472   0.991       .  S
O470        H471   0.992       .  S
C473        C474   1.399       .  A
C473        C478   1.413       .  A
C474        H479   1.084       .  S
C474        C475   1.399       .  A
C475        C476   1.413       .  A
C475        O480   1.372       .  S
C476        C477   1.400       .  A
C477        H481   1.084       .  S
C477        C478   1.402       .  A
C478        O482   1.371       .  S
O480        H484   0.992       .  S
O482        H483   0.992       .  S
C485        C486   1.404       .  A
C485        C490   1.407       .  A
C486        H491   1.083       .  S
C486        C487   1.399       .  A
C487        C488   1.409       .  A
C487        O492   1.372       .  S
C488        C489   1.406       .  A
C489        H493   1.083       .  S
C489        C490   1.401       .  A
C490        O494   1.372       .  S
O492        H496   0.992       .  S
O494        H495   0.992       .  S
C497        C498   1.404       .  A
C497        C502   1.403       .  A
C498        H503   1.084       .  S
C498        C499   1.401       .  A
C499        C500   1.409       .  A
C499        O504   1.371       .  S
C500        C501   1.409       .  A
C501        H505   1.083       .  S
C501        C502   1.404       .  A
C502        O506   1.371       .  S
O504        H508   0.992       .  S
O506        H507   0.992       .  S
C509        C510   1.409       .  A
C509        C514   1.411       .  A
C510        H515   1.082       .  S
C510        C511   1.401       .  A
C511        C512   1.403       .  A
C511        O516   1.372       .  S
C512        C513   1.402       .  A
C513        H517   1.084       .  S
C513        C514   1.401       .  A
C514        O518   1.371       .  S
O516        H520   0.992       .  S
O518        H519   0.992       .  S
C521        C522   1.406       .  A
C521        C526   1.404       .  A
C522        H527   1.083       .  S
C522        C523   1.398       .  A
C523        C524   1.401   1_455  A
C523        O528   1.371       .  S
C524        C525   1.403       .  A
C525        H529   1.084       .  S
C525        C526   1.396   1_655  A
C526        O530   1.373   1_455  S
O528        H532   0.992       .  S
O530        H531   0.992       .  S
C533        C534   1.408       .  A
C533        C538   1.402       .  A
C534        H539   1.084   1_545  S
C534        C535   1.399       .  A
C535        C536   1.406       .  A
C535        O540   1.370       .  S
C536        C537   1.415       .  A
C537        H541   1.083       .  S
C537        C538   1.405       .  A
C538        O542   1.371       .  S
O540        H544   0.992       .  S
O542        H543   0.992       .  S
C545        C546   1.399       .  A
C545        C550   1.407       .  A
C546        H551   1.084       .  S
C546        C547   1.400       .  A
C547        C548   1.411       .  A
C547        O552   1.372       .  S
C548        C549   1.404       .  A
C549        H553   1.083       .  S
C549        C550   1.401       .  A
C550        O554   1.372       .  S
O552        H556   0.992       .  S
O554        H555   0.992       .  S
C557        C558   1.398       .  A
C557        C562   1.408       .  A
C558        H563   1.084       .  S
C558        C559   1.398       .  A
C559        C560   1.411       .  A
C559        O564   1.372       .  S
C560        C561   1.399       .  A
C561        H565   1.084       .  S
C561        C562   1.397       .  A
C562        O566   1.372       .  S
O564        H568   0.992       .  S
O566        H567   0.992       .  S
C569        C570   1.403       .  A
C569        C574   1.411       .  A
C570        H575   1.083       .  S
C570        C571   1.399       .  A
C571        C572   1.409       .  A
C571        O576   1.370       .  S
C572        C573   1.403       .  A
C573        H577   1.084       .  S
C573        C574   1.401       .  A
C574        O578   1.371       .  S
O576        H580   0.992       .  S
O578        H579   0.992       .  S
C581        C582   1.403       .  A
C581        C586   1.410       .  A
C582        H587   1.083       .  S
C582        C583   1.397       .  A
C583        C584   1.408       .  A
C583        O588   1.372       .  S
C584        C585   1.405       .  A
C585        H589   1.084       .  S
C585        C586   1.402       .  A
C586        O590   1.371       .  S
O588        H592   0.992       .  S
O590        H591   0.992       .  S
C593        C594   1.403       .  A
C593        C598   1.404   1_655  A
C594        H599   1.084       .  S
C594        C595   1.398   1_655  A
C595        C596   1.405       .  A
C595        O600   1.372       .  S
C596        C597   1.405       .  A
C597        H601   1.084       .  S
C597        C598   1.400       .  A
C598        O602   1.371       .  S
O600        H604   0.992       .  S
O602        H603   0.992       .  S
C605        C606   1.412       .  A
C605        C610   1.407       .  A
C606        H611   1.083       .  S
C606        C607   1.399       .  A
C607        C608   1.399       .  A
C607        O612   1.371       .  S
C608        C609   1.404       .  A
C609        H613   1.083   1_545  S
C609        C610   1.396       .  A
C610        O614   1.370       .  S
O612        H616   0.992       .  S
O614        H615   0.992   1_545  S
C617        C618   1.394       .  A
C617        C622   1.409       .  A
C618        H623   1.084       .  S
C618        C619   1.392       .  A
C619        C620   1.415       .  A
C619        O624   1.373       .  S
C620        C621   1.401       .  A
C621        H625   1.084       .  S
C621        C622   1.401       .  A
C622        O626   1.371       .  S
O624        H628   0.992       .  S
O626        H627   0.992       .  S
C629        C630   1.405       .  A
C629        C634   1.398       .  A
C630        H635   1.084       .  S
C630        C631   1.400       .  A
C631        C632   1.402       .  A
C631        O636   1.371       .  S
C632        C633   1.405       .  A
C633        H637   1.084       .  S
C633        C634   1.389       .  A
C634        O638   1.372       .  S
O636        H640   0.992       .  S
O638        H639   0.992       .  S
C641        C642   1.401       .  A
C641        C646   1.411   1_554  A
C642        H647   1.084       .  S
C642        C643   1.397       .  A
C643        C644   1.408   1_554  A
C643        O648   1.373       .  S
C644        C645   1.399       .  A
C645        H649   1.084       .  S
C645        C646   1.400       .  A
C646        O650   1.371       .  S
O648        H652   0.992       .  S
O650        H651   0.992       .  S
C653        C654   1.398       .  A
C653        C658   1.415       .  A
C654        H659   1.084       .  S
C654        C655   1.401       .  A
C655        C656   1.414       .  A
C655        O660   1.373       .  S
C656        C657   1.397       .  A
C657        H661   1.084       .  S
C657        C658   1.401       .  A
C658        O662   1.371       .  S
O660        H664   0.992       .  S
O662        H663   0.992       .  S
C665        C666   1.396       .  A
C665        C670   1.410       .  A
C666        H671   1.084       .  S
C666        C667   1.403       .  A
C667        C668   1.416       .  A
C667        O672   1.372       .  S
C668        C669   1.402       .  A
C669        H673   1.083       .  S
C669        C670   1.401       .  A
C670        O674   1.373       .  S
O672        H676   0.992       .  S
O674        H675   0.992       .  S
C677        C678   1.412   1_655  A
C677        C682   1.409       .  A
C678        H683   1.083       .  S
C678        C679   1.396       .  A
C679        C680   1.401       .  A
C679        O684   1.372       .  S
C680        C681   1.408       .  A
C681        H685   1.083       .  S
C681        C682   1.408   1_455  A
C682        O686   1.370       .  S
O684        H688   0.992       .  S
O686        H687   0.992       .  S
C689        C690   1.398       .  A
C689        C694   1.415       .  A
C690        H695   1.084       .  S
C690        C691   1.408       .  A
C691        C692   1.418       .  A
C691        O696   1.372       .  S
C692        C693   1.400       .  A
C693        H697   1.084       .  S
C693        C694   1.403       .  A
C694        O698   1.374       .  S
O696        H700   0.992       .  S
O698        H699   0.992       .  S
C701        C702   1.401       .  A
C701        C706   1.410       .  A
C702        H707   1.084       .  S
C702        C703   1.399       .  A
C703        C704   1.411       .  A
C703        O708   1.372       .  S
C704        C705   1.408       .  A
C705        H709   1.083       .  S
C705        C706   1.412       .  A
C706        O710   1.371       .  S
O708        H712   0.992       .  S
O710        H711   0.992       .  S
C713        C714   1.406       .  A
C713        C718   1.410       .  A
C714        H719   1.084       .  S
C714        C715   1.398       .  A
C715        C716   1.409       .  A
C715        O720   1.370       .  S
C716        C717   1.406       .  A
C717        H721   1.084       .  S
C717        C718   1.402       .  A
C718        O722   1.370       .  S
O720        H724   0.992       .  S
O722        H723   0.992       .  S
C725        C726   1.404       .  A
C725        C730   1.412       .  A
C726        H731   1.082       .  S
C726        C727   1.399       .  A
C727        C728   1.412       .  A
C727        O732   1.372       .  S
C728        C729   1.405       .  A
C729        H733   1.082       .  S
C729        C730   1.400       .  A
C730        O734   1.372       .  S
O732        H736   0.992       .  S
O734        H735   0.992       .  S
C737        C738   1.391       .  A
C737        C742   1.409       .  A
C738        H743   1.084       .  S
C738        C739   1.394       .  A
C739        C740   1.419       .  A
C739        O744   1.372       .  S
C740        C741   1.402       .  A
C741        H745   1.083       .  S
C741        C742   1.399       .  A
C742        O746   1.372       .  S
O744        H748   0.992       .  S
O746        H747   0.992       .  S
C749        C750   1.405       .  A
C749        C754   1.401       .  A
C750        H755   1.084       .  S
C750        C751   1.397       .  A
C751        C752   1.408       .  A
C751        O756   1.370       .  S
C752        C753   1.412       .  A
C753        H757   1.083       .  S
C753        C754   1.400       .  A
C754        O758   1.371       .  S
O756        H760   0.992       .  S
O758        H759   0.992       .  S
C761        C762   1.405       .  A
C761        C766   1.413       .  A
C762        H767   1.084       .  S
C762        C763   1.400       .  A
C763        C764   1.404       .  A
C763        O768   1.372       .  S
C764        C765   1.398       .  A
C765        H769   1.084       .  S
C765        C766   1.399       .  A
C766        O770   1.371       .  S
O768        H772   0.992       .  S
O770        H771   0.992       .  S
C773        C774   1.407   1_655  A
C773        C778   1.404       .  A
C774        H779   1.084   1_455  S
C774        C775   1.397       .  A
C775        C776   1.407       .  A
C775        O780   1.371       .  S
C776        C777   1.412       .  A
C777        H781   1.083       .  S
C777        C778   1.403   1_455  A
C778        O782   1.371       .  S
O780        H784   0.992       .  S
O782        H783   0.992       .  S
C785        C786   1.414       .  A
C785        C790   1.409       .  A
C786        H791   1.082       .  S
C786        C787   1.410       .  A
C787        C788   1.404       .  A
C787        O792   1.371       .  S
C788        C789   1.409       .  A
C789        H793   1.084       .  S
C789        C790   1.404       .  A
C790        O794   1.371       .  S
O792        H796   0.992       .  S
O794        H795   0.992       .  S
C797        C798   1.407       .  A
C797        C802   1.421       .  A
C798        H803   1.083       .  S
C798        C799   1.415       .  A
C799        C800   1.412       .  A
C799        O804   1.371       .  S
C800        C801   1.393       .  A
C801        H805   1.084       .  S
C801        C802   1.396       .  A
C802        O806   1.373       .  S
O804        H808   0.992       .  S
O806        H807   0.992       .  S
