geometry optimzed in LAMMPS
_audit_creation_date              2020-11-30 
_audit_creation_method            'lammps2cif' 
_symmetry_space_group_name_H-M    'P1' 
_symmetry_Int_Tables_number       1 
_symmetry_cell_setting            triclinic 
loop_ 
_symmetry_equiv_pos_as_xyz 
  x,y,z 
_cell_length_a                    36.18399208 
_cell_length_b                    36.17218348345735 
_cell_length_c                    31.04457953188914 
_cell_angle_alpha                 89.95940642766483 
_cell_angle_beta                  90.01297358655476 
_cell_angle_gamma                 121.21396959397569 
loop_ 
_atom_site_label 
_atom_site_type_symbol 
_atom_site_fract_x 
_atom_site_fract_y 
_atom_site_fract_z 
_atom_site_charge 
In1        In  0.10365166  0.69687457  0.50431165     1.36900
C2          C  0.01715753  0.66151854  0.50568168     0.79500
O3          O  0.09351668  0.67976788  0.43329436    -0.59000
O4          O  0.13204843  0.66251307  0.46961983    -0.49900
C5          C  0.16646266  0.78137429  0.50517617     0.72200
O6          O  0.14711147  0.76092388  0.53866324    -0.44700
C7          C  0.11833159  0.66388449  0.57454943     0.76900
O8          O  0.04232120  0.70178234  0.50059806    -0.56600
O9          O  0.13365733  0.66376032  0.53812863    -0.46700
O10         O  0.03627595  0.64107906  0.51020497    -0.53000
C11         C  0.11529070  0.66155388  0.43374665     0.87000
O12         O  0.15043504  0.76043957  0.47100361    -0.54900
O13         O  0.09669486  0.68223772  0.57566525    -0.58200
In14       In  0.88270570  0.58736605  0.50303483     1.36900
C15         C  0.96936092  0.63796718  0.50579801     0.79500
O16         O  0.87987317  0.58337854  0.57614806    -0.59000
O17         O  0.86337227  0.52703968  0.53991274    -0.49900
C18         C  0.81365384  0.59689803  0.50016388     0.72200
O19         O  0.85071890  0.62841993  0.50988221    -0.44700
C20         C  0.87729571  0.55011814  0.42761293     0.76900
O21         O  0.94606257  0.65408084  0.49877928    -0.56600
O22         O  0.86793461  0.53030630  0.46294464    -0.46700
O23         O  0.94831454  0.59789590  0.51221125    -0.53000
C24         C  0.86882402  0.54401035  0.57646531     0.87000
O25         O  0.81304838  0.56260657  0.49189688    -0.54900
O26         O  0.88919960  0.58963823  0.43012975    -0.58200
C27         C  0.13001014  0.56253111  0.74090418     0.88400
C28         C  0.13735594  0.53123832  0.71382122    -0.51800
C29         C  0.11567601  0.52007327  0.67560106     0.11300
C30         C  0.08896403  0.54127801  0.66747474     0.22300
C31         C  0.14254305  0.60132199  0.71079964    -0.52600
C32         C  0.12079956  0.58997141  0.67247652     0.11400
C33         C  0.08052823  0.53999322  0.74536114    -0.52100
C34         C  0.05956721  0.52916570  0.70685453     0.12000
H35         H  0.15762885  0.51886678  0.72412631     0.16500
H36         H  0.07124629  0.53207781  0.63631130     0.02300
H37         H  0.16575727  0.63462840  0.71941941     0.16800
H38         H  0.06301800  0.53343820  0.77541671     0.16600
C39         C  0.85944755  0.43130849  0.26490637     0.88400
C40         C  0.90894873  0.45345536  0.26041255    -0.51800
C41         C  0.92999219  0.46474766  0.29893584     0.11300
C42         C  0.90067863  0.45345582  0.33824771     0.22300
C43         C  0.84669297  0.39301607  0.29568167    -0.52600
C44         C  0.86847407  0.40476251  0.33390972     0.11400
C45         C  0.85257927  0.46336685  0.29127951    -0.52100
C46         C  0.87444656  0.47504048  0.32943901     0.12000
H47         H  0.92634562  0.45939435  0.23036237     0.16500
H48         H  0.91843044  0.46294693  0.36939188     0.02300
H49         H  0.82331334  0.35962084  0.28751119     0.16800
H50         H  0.83253696  0.47586099  0.28055339     0.16600
In51       In  0.69544392  0.10604485  0.49923862     1.36900
C52         C  0.65912413  0.01937118  0.50069515     0.79500
O53         O  0.68250287  0.09884926  0.57071857    -0.59000
O54         O  0.66106619  0.13402011  0.53417550    -0.49900
C55         C  0.77965892  0.16941254  0.49924711     0.72200
O56         O  0.75896749  0.15235106  0.46517340    -0.44700
C57         C  0.66057812  0.11941383  0.42987028     0.76900
O58         O  0.69956112  0.04423433  0.49661587    -0.56600
O59         O  0.66221502  0.13612196  0.46595250    -0.46700
O60         O  0.63886983  0.03882945  0.50341242    -0.53000
C61         C  0.66265084  0.11903235  0.57034353     0.87000
O62         O  0.75926689  0.15061949  0.53294408    -0.54900
O63         O  0.67799614  0.09690872  0.42860709    -0.58200
In64       In  0.58505899  0.88485060  0.50294607     1.36900
C65         C  0.63536806  0.97156480  0.50230862     0.79500
O66         O  0.58382661  0.89062604  0.43032436    -0.59000
O67         O  0.52651502  0.87150928  0.46626343    -0.49900
C68         C  0.59695114  0.81732117  0.49796460     0.72200
O69         O  0.62666074  0.85362208  0.51184789    -0.44700
C70         C  0.54332728  0.86900079  0.57790045     0.76900
O71         O  0.65142133  0.94804160  0.49649844    -0.56600
O72         O  0.52455379  0.85838053  0.54205424    -0.46700
O73         O  0.59536893  0.95074043  0.50929248    -0.53000
C74         C  0.54457765  0.88000398  0.42996744     0.87000
O75         O  0.56376462  0.81707776  0.48572313    -0.54900
O76         O  0.58385420  0.88634598  0.57616550    -0.58200
C77         C  0.56038623  0.13373252  0.26442391     0.88400
C78         C  0.53175960  0.14484248  0.29169506    -0.51800
C79         C  0.51968947  0.12377540  0.33034581     0.11300
C80         C  0.53731847  0.09391075  0.33851525     0.22300
C81         C  0.59864682  0.14364594  0.29407376    -0.52600
C82         C  0.58638880  0.12265131  0.33272546     0.11400
C83         C  0.53408672  0.08404993  0.26076669    -0.52100
C84         C  0.52226387  0.06368826  0.29956251     0.12000
H85         H  0.52173587  0.16698606  0.28119147     0.16500
H86         H  0.52742800  0.07671953  0.36996652     0.02300
H87         H  0.63227664  0.16488537  0.28505233     0.16800
H88         H  0.52537164  0.06587113  0.23098844     0.16600
C89         C  0.42780336  0.85626450  0.74229188     0.88400
C90         C  0.45370501  0.90591525  0.74588237    -0.51800
C91         C  0.46530715  0.92620899  0.70707731     0.11300
C92         C  0.45056064  0.89601650  0.66814426     0.22300
C93         C  0.38938670  0.84606176  0.71260723    -0.52600
C94         C  0.40149887  0.86714710  0.67392609     0.11400
C95         C  0.45664751  0.84544535  0.71506092    -0.52100
C96         C  0.46857909  0.86645819  0.67639106     0.12000
H97         H  0.46213340  0.92415132  0.77561134     0.16500
H98         H  0.46039791  0.91325791  0.63671804     0.02300
H99         H  0.35579665  0.82492526  0.72180309     0.16800
H100        H  0.46701932  0.82360497  0.72566347     0.16600
C101        C  0.55959378  0.42449797  0.26340425     0.88400
C102        C  0.59765519  0.45740001  0.29157918    -0.51800
C103        C  0.58502525  0.46728959  0.32910427     0.11300
C104        C  0.53594505  0.44339634  0.33542003     0.22300
C105        C  0.53280665  0.38521225  0.29309046    -0.52600
C106        C  0.52042508  0.39532427  0.33061265     0.11400
C107        C  0.53120990  0.44444543  0.25730300    -0.52100
C108        C  0.51918194  0.45415306  0.29507674     0.12000
H109        H  0.63135796  0.47170500  0.28248916     0.16500
H110        H  0.52577081  0.45155281  0.36600107     0.02300
H111        H  0.52400187  0.35244314  0.28487103     0.16800
H112        H  0.52135956  0.45095375  0.22670844     0.16600
C113        C  0.42482702  0.55904748  0.26475324     0.88400
C114        C  0.38581030  0.53170083  0.29450966    -0.51800
C115        C  0.39630771  0.51932635  0.33180686     0.11300
C116        C  0.44450009  0.53528426  0.33629272     0.22300
C117        C  0.45753100  0.59705145  0.29303696    -0.52600
C118        C  0.46781272  0.58441326  0.33030918     0.11400
C119        C  0.44526252  0.53116452  0.25804232    -0.52100
C120        C  0.45531621  0.51900614  0.29560098     0.12000
H121        H  0.35295944  0.52286834  0.28667385     0.16500
H122        H  0.45295492  0.52510487  0.36670882     0.02300
H123        H  0.47122435  0.63078588  0.28432773     0.16800
H124        H  0.45156025  0.52152983  0.22720447     0.16600
C125        C  0.43145643  0.56875049  0.74310704     0.88400
C126        C  0.45855049  0.60780334  0.71326972    -0.51800
C127        C  0.47056281  0.59729210  0.67574617     0.11300
C128        C  0.45441541  0.54900417  0.67113820     0.22300
C129        C  0.39312578  0.53605640  0.71508210    -0.52600
C130        C  0.40533901  0.52564869  0.67760884     0.11400
C131        C  0.45932183  0.54822873  0.74927343    -0.52100
C132        C  0.47099851  0.53805670  0.71155091     0.12000
H133        H  0.46771932  0.64070795  0.72133844     0.16500
H134        H  0.46428510  0.54048819  0.64058376     0.02300
H135        H  0.35950754  0.52212245  0.72432214     0.16800
H136        H  0.46914041  0.54172299  0.77989720     0.16600
In137      In  0.29527820  0.40455024  0.50691794     1.36900
C138        C  0.32809998  0.35239375  0.50289481     0.79500
O139        O  0.29365096  0.40873963  0.43420936    -0.59000
O140        O  0.33811320  0.46476970  0.46960712    -0.49900
C141        C  0.21580015  0.39415563  0.50899878     0.72200
O142        O  0.22110346  0.36406859  0.49590420    -0.44700
C143        C  0.33226643  0.44624267  0.57986393     0.76900
O144        O  0.29087505  0.33889898  0.51848605    -0.56600
O145        O  0.34254250  0.46368102  0.54331382    -0.46700
O146        O  0.34622555  0.39037368  0.48879880    -0.53000
C147        C  0.32397087  0.44783711  0.43331925     0.87000
O148        O  0.24988879  0.42696485  0.52199953    -0.54900
O149        O  0.30272699  0.40679119  0.57977448    -0.58200
In150      In  0.40382180  0.29607434  0.50497417     1.36900
C151        C  0.35154408  0.32877473  0.50218334     0.79500
O152        O  0.40595992  0.30340188  0.57754770    -0.59000
O153        O  0.46251724  0.34450313  0.54111293    -0.49900
C154        C  0.39400268  0.21689066  0.50811972     0.72200
O155        O  0.36363373  0.22181614  0.49513375    -0.44700
C156        C  0.44709515  0.32375977  0.43133454     0.76900
O157        O  0.33827939  0.29147139  0.51747253    -0.56600
O158        O  0.46412012  0.33789420  0.46758862    -0.46700
O159        O  0.38917000  0.34682420  0.48715943    -0.53000
C160        C  0.44500261  0.33381972  0.57760894     0.87000
O161        O  0.42689819  0.25126079  0.52049732    -0.54900
O162        O  0.40767800  0.29419190  0.43222966    -0.58200
C163        C  0.56450497  0.43207457  0.74215415     0.88400
C164        C  0.53167063  0.39421832  0.71386607    -0.51800
C165        C  0.52148178  0.40702805  0.67668753     0.11300
C166        C  0.54497592  0.45616326  0.67078258     0.22300
C167        C  0.60355329  0.45931938  0.71243129    -0.52600
C168        C  0.59311393  0.47190963  0.67525157     0.11400
C169        C  0.54435610  0.46022898  0.74901500    -0.52100
C170        C  0.53429491  0.47249032  0.71150848     0.12000
H171        H  0.51785356  0.36044223  0.72248007     0.16500
H172        H  0.53659048  0.46646928  0.64040573     0.02300
H173        H  0.63638570  0.46809967  0.72028456     0.16800
H174        H  0.53820919  0.46991390  0.77989884     0.16600
In175      In  0.58658242  0.69711452  0.50099114     1.36900
C176        C  0.63767392  0.66318716  0.50349288     0.79500
O177        O  0.58377173  0.69656172  0.57395087    -0.59000
O178        O  0.52561937  0.65854696  0.53863731    -0.49900
C179        C  0.59747077  0.77666026  0.49735024     0.72200
O180        O  0.62707670  0.77131191  0.51191234    -0.44700
C181        C  0.54487656  0.65860374  0.42882551     0.76900
O182        O  0.65183780  0.70103491  0.48917773    -0.56600
O183        O  0.52740311  0.64892973  0.46539582    -0.46700
O184        O  0.59956332  0.64498716  0.51726958    -0.53000
C185        C  0.54356496  0.66968553  0.57490615     0.87000
O186        O  0.56519216  0.74268405  0.48343408    -0.54900
O187        O  0.58418481  0.68845433  0.42855974    -0.57000
In188      In  0.69367804  0.58724702  0.50068392     1.36900
C189        C  0.66088052  0.63935066  0.50339994     0.79500
O190        O  0.68620682  0.58517504  0.42803884    -0.59000
O191        O  0.64633727  0.52813502  0.46435096    -0.49900
C192        C  0.77289135  0.59721019  0.49899599     0.72200
O193        O  0.76781499  0.62761655  0.51146945    -0.44700
C194        C  0.66524776  0.54452147  0.57443202     0.76900
O195        O  0.69836686  0.65283198  0.48851395    -0.56600
O196        O  0.65254740  0.52686567  0.53819257    -0.46700
O197        O  0.64241269  0.60133395  0.51752853    -0.53000
C198        C  0.65672184  0.54572421  0.42786124     0.87000
O199        O  0.73873593  0.56433242  0.48627253    -0.54900
O200        O  0.69388074  0.58425426  0.57349181    -0.58200
C201        C  0.58342528  0.40544899  0.85975243     0.88400
C202        C  0.63251318  0.42419627  0.86024916    -0.51800
C203        C  0.64563341  0.40829194  0.89264561     0.11300
C204        C  0.60907260  0.37565794  0.92184424     0.22300
C205        C  0.56313532  0.35607830  0.85846794    -0.52600
C206        C  0.57688496  0.34078565  0.89093876     0.11400
C207        C  0.57279735  0.41492259  0.90501503    -0.52100
C208        C  0.58639760  0.39917667  0.93737610     0.12000
H209        H  0.65449079  0.44638401  0.83600448     0.16500
H210        H  0.62021249  0.36284898  0.94816115     0.02300
H211        H  0.54168786  0.33555002  0.83302917     0.16800
H212        H  0.55645477  0.43253005  0.91087817     0.16600
C213        C  0.58164571  0.17073268  0.85855457     0.88400
C214        C  0.56233318  0.19993241  0.85736940    -0.51800
C215        C  0.57569027  0.22863901  0.89053101     0.11300
C216        C  0.60661676  0.22557753  0.92199653     0.22300
C217        C  0.63084284  0.20204776  0.86052755    -0.52600
C218        C  0.64362334  0.23071254  0.89365034     0.11400
C219        C  0.56944005  0.14906694  0.90339494    -0.52100
C220        C  0.58275973  0.17818288  0.93648234     0.12000
H221        H  0.54181512  0.19939640  0.83150944     0.16500
H222        H  0.61751803  0.24932623  0.94883949     0.02300
H223        H  0.65323971  0.20267366  0.83680215     0.16800
H224        H  0.55249628  0.11436125  0.90844754     0.16600
C225        C  0.81681702  0.40620545  0.85970220     0.88400
C226        C  0.78658925  0.35680907  0.86185280    -0.51800
C227        C  0.75825568  0.34336993  0.89538807     0.11300
C228        C  0.76280682  0.37993913  0.92401152     0.22300
C229        C  0.78646483  0.42418344  0.85930045    -0.52600
C230        C  0.75823170  0.41013723  0.89290156     0.11400
C231        C  0.83906747  0.41901598  0.90427568    -0.52100
C232        C  0.81035936  0.40505242  0.93780946     0.12000
H233        H  0.78583356  0.33484120  0.83752678     0.16500
H234        H  0.73938765  0.36852996  0.95119325     0.02300
H235        H  0.78592157  0.44433459  0.83362785     0.16800
H236        H  0.87385250  0.43720685  0.90880963     0.16600
C237        C  0.58251907  0.17241713  0.14367434     0.88400
C238        C  0.63187217  0.20310513  0.14237088    -0.51800
C239        C  0.64568655  0.23143721  0.10881869     0.11300
C240        C  0.60939850  0.22644190  0.07934910     0.22300
C241        C  0.56392906  0.20217403  0.14315221    -0.52600
C242        C  0.57830547  0.23044038  0.10966818     0.11400
C243        C  0.57070094  0.15008588  0.09915632    -0.52100
C244        C  0.58493105  0.17881649  0.06558252     0.12000
H245        H  0.65352910  0.20402770  0.16717938     0.16500
H246        H  0.62100056  0.24988444  0.05216635     0.02300
H247        H  0.54316425  0.20242425  0.16829949     0.16800
H248        H  0.55273598  0.11528244  0.09468853     0.16600
C249        C  0.81783835  0.40937931  0.14500125     0.88400
C250        C  0.78782988  0.42772031  0.14506215    -0.51800
C251        C  0.75925900  0.41323826  0.11180134     0.11300
C252        C  0.76323395  0.38230833  0.08119727     0.22300
C253        C  0.78728750  0.35994323  0.14377027    -0.52600
C254        C  0.75871989  0.34606496  0.11040673     0.11400
C255        C  0.83968117  0.42124566  0.10022735    -0.52100
C256        C  0.81068310  0.40686828  0.06694784     0.12000
H257        H  0.78776233  0.44848598  0.17030591     0.16500
H258        H  0.73958393  0.37060295  0.05421857     0.02300
H259        H  0.78690751  0.33825429  0.16824068     0.16800
H260        H  0.87442262  0.43900643  0.09537532     0.16600
C261        C  0.58296112  0.40482624  0.14456020     0.88400
C262        C  0.56436541  0.35573421  0.14446136    -0.51800
C263        C  0.57949882  0.34239990  0.11156323     0.11300
C264        C  0.61134754  0.37861560  0.08174391     0.22300
C265        C  0.63231978  0.42531085  0.14457764    -0.52600
C266        C  0.64682513  0.41121920  0.11177236     0.11400
C267        C  0.57224896  0.41482068  0.09942994    -0.52100
C268        C  0.58733123  0.40083833  0.06672261     0.12000
H269        H  0.54274522  0.33392828  0.16913767     0.16500
H270        H  0.62362323  0.36722972  0.05516419     0.02300
H271        H  0.65345292  0.44706327  0.16952850     0.16800
H272        H  0.55443619  0.43101211  0.09394162     0.16600
C273        C  0.40685622  0.58716194  0.86197390     0.88400
C274        C  0.35744855  0.56645003  0.86114444    -0.51800
C275        C  0.34216442  0.57958105  0.89411294     0.11300
C276        C  0.37702493  0.61154487  0.92507828     0.22300
C277        C  0.42516895  0.63617494  0.86319182    -0.52600
C278        C  0.40926746  0.64854997  0.89622456     0.11400
C279        C  0.41686725  0.57620840  0.90696587    -0.52100
C280        C  0.40107209  0.58925011  0.93982840     0.12000
H281        H  0.33686418  0.54527298  0.83557950     0.16500
H282        H  0.36417871  0.62218749  0.95178942     0.02300
H283        H  0.44709178  0.65862215  0.83907753     0.16800
H284        H  0.43494408  0.56025976  0.91226963     0.16600
C285        C  0.40589984  0.81804133  0.86326329     0.88400
C286        C  0.42440842  0.78823135  0.86448257    -0.51800
C287        C  0.40944126  0.75993894  0.89795357     0.11300
C288        C  0.37785743  0.76391377  0.92750946     0.22300
C289        C  0.35653773  0.78743350  0.86379435    -0.52600
C290        C  0.34217353  0.75907779  0.89729919     0.11400
C291        C  0.41699927  0.84029295  0.90787403    -0.52100
C292        C  0.40209728  0.81145509  0.94141222     0.12000
H293        H  0.44560250  0.78800643  0.83981362     0.16500
H294        H  0.36574016  0.74038811  0.95463113     0.02300
H295        H  0.33529255  0.78655968  0.83853947     0.16800
H296        H  0.43502804  0.87508250  0.91242148     0.16600
C297        C  0.17068993  0.58112213  0.86092863     0.88400
C298        C  0.20120387  0.63047521  0.86225601    -0.51800
C299        C  0.22984596  0.64424137  0.89542999     0.11300
C300        C  0.22545860  0.60798784  0.92454967     0.22300
C301        C  0.20063046  0.56268433  0.86059790    -0.52600
C302        C  0.22931867  0.57705468  0.89378821     0.11400
C303        C  0.14893303  0.56917791  0.90575272    -0.52100
C304        C  0.17803077  0.58349632  0.93897256     0.12000
H305        H  0.20145607  0.65226883  0.83798051     0.16500
H306        H  0.24920981  0.61969433  0.95143595     0.02300
H307        H  0.20063067  0.54204473  0.83517681     0.16800
H308        H  0.11420401  0.55154203  0.91067879     0.16600
C309        C  0.40472330  0.58421062  0.14678171     0.88400
C310        C  0.42436366  0.63348940  0.14804141    -0.51800
C311        C  0.41037351  0.64846818  0.11550710     0.11300
C312        C  0.37869697  0.61340984  0.08444446     0.22300
C313        C  0.35551133  0.56484203  0.14601906    -0.52600
C314        C  0.34220007  0.58043264  0.11344608     0.11400
C315        C  0.41578707  0.57500672  0.10158225    -0.52100
C316        C  0.40198207  0.59044179  0.06910045     0.12000
H317        H  0.44553303  0.65417824  0.17355616     0.16500
H318        H  0.36740693  0.62597315  0.05802979     0.02300
H319        H  0.33361002  0.54258003  0.17025882     0.16800
H320        H  0.43251873  0.55775981  0.09584977     0.16600
C321        C  0.17119604  0.58259871  0.14643055     0.88400
C322        C  0.20146827  0.56454148  0.14650802    -0.51800
C323        C  0.22982904  0.57893593  0.11302215     0.11300
C324        C  0.22546834  0.60960905  0.08235615     0.22300
C325        C  0.20137084  0.63196470  0.14483040    -0.52600
C326        C  0.22981859  0.64579898  0.11147421     0.11400
C327        C  0.14908511  0.57030995  0.10175211    -0.52100
C328        C  0.17797022  0.58471153  0.06830762     0.12000
H329        H  0.20184012  0.54403880  0.17189797     0.16500
H330        H  0.24903804  0.62138081  0.05529871     0.02300
H331        H  0.20190847  0.65368447  0.16933130     0.16800
H332        H  0.11431789  0.55219597  0.09709347     0.16600
C333        C  0.40586449  0.81880238  0.14869109     0.88400
C334        C  0.35662411  0.78763660  0.14697677    -0.51800
C335        C  0.34358289  0.75902835  0.11377593     0.11300
C336        C  0.38031018  0.76403224  0.08512725     0.22300
C337        C  0.42497187  0.78941057  0.14951876    -0.52600
C338        C  0.41126367  0.76069750  0.11632748     0.11400
C339        C  0.41784041  0.84051126  0.10383806    -0.52100
C340        C  0.40417536  0.81143569  0.07067705     0.12000
H341        H  0.33441790  0.78700259  0.17094619     0.16500
H342        H  0.36914546  0.74030330  0.05824843     0.02300
H343        H  0.44552851  0.78975982  0.17523467     0.16800
H344        H  0.43481447  0.87522492  0.09883590     0.16600
In345      In  0.10633826  0.40468880  0.50399650     1.36900
C346        C  0.01931428  0.35422240  0.50119322     0.79500
O347        O  0.09905785  0.40421159  0.57658864    -0.59000
O348        O  0.12519673  0.46372642  0.54250118    -0.49900
C349        C  0.17490653  0.39430101  0.50813039     0.72200
O350        O  0.13840380  0.36377875  0.49551552    -0.44700
C351        C  0.12099102  0.44808192  0.43055563     0.76900
O352        O  0.04252659  0.33787428  0.50741245    -0.56600
O353        O  0.12205120  0.46381836  0.46687255    -0.46700
O354        O  0.04057762  0.39444303  0.49596894    -0.53000
C355        C  0.11370275  0.44443125  0.57811427     0.87000
O356        O  0.17498202  0.42771828  0.51920623    -0.54900
O357        O  0.11384983  0.41001165  0.43116989    -0.58200
In358      In  0.88471693  0.29567190  0.50051858     1.36900
C359        C  0.97142512  0.33079764  0.50073716     0.79500
O360        O  0.89200748  0.31158692  0.42943370    -0.59000
O361        O  0.85353028  0.32793240  0.46722136    -0.49900
C362        C  0.82102800  0.21135407  0.50001866     0.72200
O363        O  0.84160292  0.23095166  0.46662298    -0.44700
C364        C  0.87393192  0.33064885  0.57146057     0.76900
O365        O  0.94597959  0.29028283  0.50255221    -0.56600
O366        O  0.86150269  0.33467555  0.53477729    -0.46700
O367        O  0.95248585  0.35158547  0.49862162    -0.53000
C368        C  0.86973252  0.32924294  0.43091941     0.87000
O369        O  0.83585522  0.23317082  0.53389974    -0.54900
O370        O  0.89079737  0.30761458  0.57241071    -0.58200
C371        C  0.85785398  0.42750682  0.73938805     0.88400
C372        C  0.84673825  0.45599622  0.71191126    -0.51800
C373        C  0.86867410  0.46901688  0.67381860     0.11300
C374        C  0.89937039  0.45226585  0.66621856     0.22300
C375        C  0.84936956  0.38985908  0.70937527    -0.52600
C376        C  0.87125091  0.40301345  0.67117275     0.11400
C377        C  0.90741176  0.45441161  0.74420389    -0.52100
C378        C  0.92862819  0.46703930  0.70589580     0.12000
H379        H  0.82396170  0.46535126  0.72195752     0.16500
H380        H  0.91727061  0.46291399  0.63519324     0.02300
H381        H  0.82823968  0.35601999  0.71774543     0.16800
H382        H  0.92493871  0.46249306  0.77436449     0.16600
C383        C  0.13134313  0.56289336  0.26693849     0.88400
C384        C  0.08178363  0.53657876  0.26252868    -0.51800
C385        C  0.06082158  0.52449471  0.30095054     0.11300
C386        C  0.09040713  0.53916726  0.34044164     0.22300
C387        C  0.14061372  0.60099045  0.29675321    -0.52600
C388        C  0.11897736  0.58836258  0.33516581     0.11400
C389        C  0.14222668  0.53431014  0.29440643    -0.52100
C390        C  0.12068872  0.52189537  0.33268370     0.12000
H391        H  0.06404019  0.52871382  0.23251427     0.16500
H392        H  0.07273215  0.52889820  0.37160561     0.02300
H393        H  0.16188528  0.63470367  0.28801557     0.16800
H394        H  0.16471429  0.52459068  0.28431023     0.16600
In395      In  0.40438632  0.10724121  0.50410254     1.36900
C396        C  0.35303903  0.02038305  0.50421060     0.79500
O397        O  0.40594232  0.10754590  0.43097592    -0.59000
O398        O  0.46458282  0.13042098  0.46544896    -0.49900
C399        C  0.39422429  0.17601923  0.50776203     0.72200
O400        O  0.36370841  0.13945603  0.49533076    -0.44700
C401        C  0.44473734  0.11236439  0.57714639     0.76900
O402        O  0.33792308  0.04424174  0.51290223    -0.56600
O403        O  0.46270296  0.12005509  0.54086251    -0.46700
O404        O  0.39246355  0.04095320  0.49458866    -0.53000
C405        C  0.44608709  0.12217050  0.42944950     0.87000
O406        O  0.42759988  0.17610685  0.51903169    -0.54900
O407        O  0.40572061  0.10243232  0.57672224    -0.58200
In408      In  0.29256399  0.88569746  0.50732357     1.36900
C409        C  0.32907032  0.97250432  0.50570799     0.79500
O410        O  0.30816881  0.89284758  0.57874398    -0.59000
O411        O  0.32893297  0.85854643  0.54023715    -0.49900
C412        C  0.20803815  0.82307591  0.50613550     0.72200
O413        O  0.22827680  0.84016093  0.54041304    -0.44700
C414        C  0.32409737  0.87115140  0.43615807     0.76900
O415        O  0.28877154  0.94774132  0.51101584    -0.56600
O416        O  0.32223513  0.85326383  0.47166049    -0.46700
O417        O  0.34904831  0.95287106  0.50165865    -0.53000
C418        C  0.32806719  0.87275444  0.57699255     0.87000
O419        O  0.22910994  0.84147472  0.47263569    -0.54900
O420        O  0.30822774  0.89507709  0.43642825    -0.58200
C421        C  0.56314769  0.12820360  0.73921883     0.88400
C422        C  0.60142846  0.14013432  0.70870137    -0.51800
C423        C  0.58943292  0.11798395  0.67064715     0.11300
C424        C  0.54068100  0.08618197  0.66634894     0.22300
C425        C  0.53167496  0.13543009  0.71230743    -0.52600
C426        C  0.51991740  0.11323626  0.67441010     0.11400
C427        C  0.54034541  0.07871166  0.74432184    -0.52100
C428        C  0.52880373  0.05724103  0.70607035     0.12000
H429        H  0.63483262  0.16369008  0.71661625     0.16500
H430        H  0.53098076  0.06812799  0.63538313     0.02300
H431        H  0.51972370  0.15610733  0.72242358     0.16800
H432        H  0.53386610  0.06156668  0.77460489     0.16600
C433        C  0.42443031  0.86138653  0.26818206     0.88400
C434        C  0.45638211  0.85500474  0.29526995    -0.51800
C435        C  0.46780548  0.87735176  0.33310758     0.11300
C436        C  0.44614501  0.90364885  0.34094574     0.22300
C437        C  0.38593600  0.84886320  0.29860635    -0.52600
C438        C  0.39750264  0.87114298  0.33659577     0.11400
C439        C  0.44643247  0.91080638  0.26294623    -0.52100
C440        C  0.45760557  0.93243556  0.30111552     0.12000
H441        H  0.46901919  0.83489432  0.28522352     0.16500
H442        H  0.45553185  0.92182118  0.37184182     0.02300
H443        H  0.35266721  0.82494131  0.29059874     0.16800
H444        H  0.45279816  0.92781678  0.23259797     0.16600
C445        C  0.36695332  0.86650254  0.36941099    -0.11400
C446        C  0.34511608  0.86659469  0.39885003    -0.12900
C447        C  0.46757111  0.11407919  0.61561073    -0.11400
C448        C  0.49039648  0.11461632  0.64420334    -0.12900
C449        C  0.87044236  0.35221618  0.60895087    -0.11400
C450        C  0.86947849  0.37362467  0.63839009    -0.12900
C451        C  0.12500073  0.49417444  0.36316101    -0.11400
C452        C  0.12523864  0.47172627  0.39181430    -0.12900
C453        C  0.41111345  0.83423597  0.22744095    -0.14500
C454        C  0.41998552  0.84944841  0.18659907    -0.29700
H455        H  0.39389753  0.79943918  0.23223465     0.14500
H456        H  0.43773046  0.88370973  0.17985044     0.15100
C457        C  0.14131067  0.56774267  0.18496005    -0.14500
C458        C  0.15743460  0.57736357  0.22550176    -0.29700
H459        H  0.10697382  0.54889036  0.17881985     0.14500
H460        H  0.19233068  0.59628029  0.22945960     0.15100
C461        C  0.30016580  0.72292247  0.10990392    -0.11400
C462        C  0.26621931  0.68918692  0.10903523    -0.12900
C463        C  0.41835258  0.69180229  0.11458552    -0.11400
C464        C  0.41863999  0.72524637  0.11484831    -0.12900
C465        C  0.29902994  0.57256729  0.11087716    -0.11400
C466        C  0.26556084  0.57214318  0.11075894    -0.12900
C467        C  0.16673779  0.57771737  0.98419522    -0.11400
C468        C  0.16657223  0.57805715  0.02313243    -0.12900
C469        C  0.26553785  0.68798944  0.89869969    -0.11400
C470        C  0.29892493  0.72231009  0.89922095    -0.12900
C471        C  0.40867535  0.82290613  0.98655394    -0.11400
C472        C  0.40940031  0.82272698  0.02547268    -0.12900
C473        C  0.41653907  0.69132949  0.89984543    -0.11400
C474        C  0.41645926  0.72447399  0.90064678    -0.12900
C475        C  0.26503387  0.57017620  0.89551499    -0.11400
C476        C  0.29862037  0.57081784  0.89548238    -0.12900
C477        C  0.40689419  0.58454232  0.98502433    -0.11400
C478        C  0.40718369  0.58520277  0.02386993    -0.12900
C479        C  0.72367923  0.42022117  0.10978009    -0.11400
C480        C  0.69021347  0.41975054  0.10987711    -0.12900
C481        C  0.57138572  0.26601559  0.10766169    -0.11400
C482        C  0.57164201  0.29934166  0.10858510    -0.12900
C483        C  0.68903078  0.26821816  0.10636654    -0.11400
C484        C  0.72271704  0.30235513  0.10703294    -0.12900
C485        C  0.82206564  0.41281556  0.02178594    -0.11400
C486        C  0.82203738  0.41227113  0.98287145    -0.12900
C487        C  0.84693201  0.42105595  0.82127454    -0.14500
C488        C  0.83125154  0.41215175  0.78056045    -0.29700
H489        H  0.88123462  0.43975222  0.82764490     0.14500
H490        H  0.79640050  0.39324487  0.77625237     0.15100
C491        C  0.57688889  0.15530544  0.77993598    -0.14500
C492        C  0.56781822  0.14006491  0.82073163    -0.29700
H493        H  0.59435545  0.19011268  0.77515954     0.14500
H494        H  0.54992969  0.10580017  0.82747137     0.15100
C495        C  0.57709647  0.16695960  0.98166187    -0.11400
C496        C  0.57785119  0.16707811  0.02055748    -0.12900
C497        C  0.72143823  0.30017631  0.89822851    -0.11400
C498        C  0.68713908  0.26673867  0.89771228    -0.12900
C499        C  0.72231793  0.41663718  0.89496341    -0.11400
C500        C  0.68872439  0.41595282  0.89502185    -0.12900
C501        C  0.56820461  0.29722423  0.89198221    -0.11400
C502        C  0.56786085  0.26376740  0.89187517    -0.12900
C503        C  0.58128727  0.40441449  0.98262060    -0.11400
C504        C  0.58146277  0.40517409  0.02146031    -0.12900
C505        C  0.64616021  0.52099386  0.61348476    -0.11400
C506        C  0.62435586  0.49892495  0.64315424    -0.12900
C507        C  0.57680919  0.41641591  0.78178702    -0.14500
C508        C  0.56923257  0.42249081  0.82296244    -0.29700
H509        H  0.59269188  0.39831339  0.77586944     0.14500
H510        H  0.55284748  0.43951291  0.83080663     0.15100
C511        C  0.49150093  0.37729001  0.64515612    -0.11400
C512        C  0.46841899  0.35548834  0.61600205    -0.12900
C513        C  0.49530775  0.51695961  0.71024774    -0.11400
C514        C  0.51398503  0.49755723  0.71042649    -0.12900
C515        C  0.41664717  0.58110028  0.78342520    -0.14500
C516        C  0.42367289  0.57362196  0.82441746    -0.29700
H517        H  0.39831955  0.59685362  0.77822179     0.14500
H518        H  0.44107081  0.55750675  0.83164683     0.15100
C519        C  0.51977237  0.65053805  0.61392265    -0.11400
C520        C  0.49759070  0.62862132  0.64356036    -0.12900
C521        C  0.37520166  0.49453207  0.64688405    -0.11400
C522        C  0.35345790  0.47035130  0.61824329    -0.12900
C523        C  0.41926801  0.56761823  0.18375017    -0.14500
C524        C  0.41224445  0.57431622  0.22494607    -0.29700
H525        H  0.43559824  0.55052134  0.17599437     0.14500
H526        H  0.39635810  0.59243110  0.23075189     0.15100
C527        C  0.49784666  0.61431039  0.36177716    -0.11400
C528        C  0.52112310  0.63641403  0.39071656    -0.12900
C529        C  0.34327942  0.47123767  0.39418833    -0.11400
C530        C  0.36513474  0.49280837  0.36425880    -0.12900
C531        C  0.49445355  0.47475203  0.29657324    -0.11400
C532        C  0.47564299  0.49399463  0.29667688    -0.12900
C533        C  0.56698444  0.41931473  0.18205367    -0.14500
C534        C  0.57465115  0.41248961  0.22305543    -0.29700
H535        H  0.54931182  0.43513199  0.17479283     0.14500
H536        H  0.59324868  0.39702392  0.22824527     0.15100
C537        C  0.63586023  0.52182588  0.38935556    -0.11400
C538        C  0.61468047  0.49805963  0.36027123    -0.12900
C539        C  0.49329126  0.36383120  0.36256067    -0.11400
C540        C  0.47094794  0.34224551  0.39223944    -0.12900
C541        C  0.48836081  0.97234133  0.70357044    -0.11400
C542        C  0.50704306  0.01108634  0.70353514    -0.12900
C543        C  0.37132187  0.86552605  0.64214720    -0.11400
C544        C  0.34968780  0.86764161  0.61358754    -0.12900
C545        C  0.41346219  0.83085340  0.78412733    -0.14500
C546        C  0.42148547  0.84757594  0.82445302    -0.29700
H547        H  0.39530126  0.79587958  0.78067121     0.14500
H548        H  0.43931724  0.88201826  0.83018021     0.15100
C549        C  0.49835101  0.01746703  0.30308680    -0.11400
C550        C  0.47923403  0.97866155  0.30338818    -0.12900
C551        C  0.49172964  0.12762910  0.36093954    -0.11400
C552        C  0.46933592  0.12689823  0.39020060    -0.12900
C553        C  0.57514225  0.15934434  0.22274854    -0.14500
C554        C  0.56740683  0.14278558  0.18240249    -0.29700
H555        H  0.59323639  0.19430841  0.22634238     0.14500
H556        H  0.54973031  0.10834846  0.17660963     0.15100
C557        C  0.49704348  0.86306098  0.64605889    -0.11400
C558        C  0.51983320  0.86404096  0.61706027    -0.12900
C559        C  0.52148128  0.87822721  0.39159050    -0.11400
C560        C  0.49809734  0.87708811  0.36321438    -0.12900
C561        C  0.64132999  0.12275986  0.60780521    -0.11400
C562        C  0.61959736  0.12252388  0.63748927    -0.12900
C563        C  0.63860285  0.12412792  0.39352405    -0.11400
C564        C  0.61657601  0.12525160  0.36488156    -0.12900
C565        C  0.97597429  0.48484380  0.30231212    -0.11400
C566        C  0.01462221  0.50219470  0.30343838    -0.12900
C567        C  0.86461144  0.37408767  0.36623239    -0.11400
C568        C  0.86512880  0.35151741  0.39470264    -0.12900
C569        C  0.84828167  0.42463368  0.18314878    -0.14500
C570        C  0.83274881  0.41718198  0.22386792    -0.29700
H571        H  0.88260541  0.44219024  0.17668907     0.14500
H572        H  0.79791288  0.40006353  0.22830970     0.15100
C573        C  0.01354505  0.50854180  0.70380597    -0.11400
C574        C  0.97484003  0.49040768  0.70340812    -0.12900
C575        C  0.11602713  0.46726949  0.61686136    -0.11400
C576        C  0.11689769  0.49037934  0.64538268    -0.12900
C577        C  0.15634625  0.57563436  0.78211484    -0.14500
C578        C  0.14045037  0.56647521  0.82271056    -0.29700
H579        H  0.19122692  0.59324245  0.77791179     0.14500
H580        H  0.10610183  0.54836820  0.82900918     0.15100
C581        C  0.86483158  0.49725837  0.64352234    -0.11400
C582        C  0.86495346  0.52009666  0.61501164    -0.12900
C583        C  0.87519230  0.52847234  0.38804341    -0.11400
C584        C  0.87387439  0.50545088  0.35918359    -0.12900
C585        C  0.12446241  0.62074332  0.64033661    -0.11400
C586        C  0.12339841  0.64261853  0.61142239    -0.12900
C587        C  0.12082509  0.61814616  0.36763521    -0.11400
C588        C  0.11943757  0.63971786  0.39673398    -0.12900
loop_ 
_geom_bond_atom_site_label_1 
_geom_bond_atom_site_label_2 
_geom_bond_distance 
_geom_bond_site_symmetry_2 
_ccdc_geom_bond_type 
In1           O3   2.268       .  S
In1           O4   2.255       .  S
In1          O12   2.277       .  S
In1           O6   2.281       .  S
In1           O8   2.319       .  S
In1           O9   2.250       .  S
In1          O10   2.225       .  S
In1          O13   2.261       .  S
C2            O8   1.265       .  A
C2           O10   1.255       .  A
C2           C15   1.480   1_455  S
O3           C11   1.262       .  A
O4           C11   1.260       .  A
C5           O12   1.257       .  A
C5            O6   1.257       .  A
C5          C412   1.479       .  S
C7            O9   1.260       .  A
C7           O13   1.262       .  A
C7          C586   1.442       .  S
C11         C588   1.446       .  S
In14         O16   2.273       .  S
In14         O17   2.231       .  S
In14         O25   2.221       .  S
In14         O19   2.318       .  S
In14         O21   2.316       .  S
In14         O22   2.226       .  S
In14         O23   2.219       .  S
In14         O26   2.273       .  S
C15          O21   1.268       .  A
C15          O23   1.255       .  A
O16          C24   1.264       .  A
O17          C24   1.257       .  A
C18          O25   1.256       .  A
C18          O19   1.267       .  A
C18         C192   1.481       .  S
C20          O22   1.257       .  A
C20          O26   1.264       .  A
C20         C583   1.438       .  S
C24         C582   1.440       .  S
C27          C28   1.540       .  S
C27          C33   1.542       .  S
C27          C31   1.545       .  S
C27         C577   1.517       .  S
C28          H35   1.087       .  S
C28          C29   1.363       .  D
C29          C30   1.534       .  S
C29         C576   1.444       .  S
C30          C34   1.528       .  S
C30          C32   1.533       .  S
C30          H36   1.112       .  S
C31          H37   1.086       .  S
C31          C32   1.367       .  D
C32         C585   1.448       .  S
C33          H38   1.083       .  S
C33          C34   1.360       .  D
C34         C573   1.432       .  S
C39          C40   1.543       .  S
C39          C45   1.542       .  S
C39          C43   1.543       .  S
C39         C570   1.519       .  S
C40          H47   1.083       .  S
C40          C41   1.362       .  D
C41          C42   1.527       .  S
C41         C565   1.433       .  S
C42          C46   1.534       .  S
C42          C44   1.533       .  S
C42          H48   1.112       .  S
C43          H49   1.086       .  S
C43          C44   1.365       .  D
C44         C567   1.448       .  S
C45          H50   1.086       .  S
C45          C46   1.364       .  D
C46         C584   1.445       .  S
In51         O53   2.255       .  S
In51         O54   2.248       .  S
In51         O62   2.274       .  S
In51         O56   2.284       .  S
In51         O58   2.318       .  S
In51         O59   2.247       .  S
In51         O60   2.227       .  S
In51         O63   2.258       .  S
C52          O58   1.266       .  A
C52          O60   1.255       .  A
C52          C65   1.480   1_545  S
O53          C61   1.262       .  A
O54          C61   1.261       .  A
C55          O62   1.257       .  A
C55          O56   1.258       .  A
C55         C362   1.480       .  S
C57          O59   1.260       .  A
C57          O63   1.262       .  A
C57         C563   1.440       .  S
C61         C561   1.440       .  S
In64         O66   2.267       .  S
In64         O67   2.226       .  S
In64         O75   2.221       .  S
In64         O69   2.320       .  S
In64         O71   2.311       .  S
In64         O72   2.238       .  S
In64         O73   2.222       .  S
In64         O76   2.275       .  S
C65          O71   1.267       .  A
C65          O73   1.257       .  A
O66          C74   1.265       .  A
O67          C74   1.258       .  A
C68          O75   1.255       .  A
C68          O69   1.266       .  A
C68         C179   1.481       .  S
C70          O72   1.256       .  A
C70          O76   1.262       .  A
C70         C558   1.440       .  S
C74         C559   1.437       .  S
C77          C78   1.544       .  S
C77          C83   1.541       .  S
C77          C81   1.542       .  S
C77         C553   1.518       .  S
C78          H85   1.086       .  S
C78          C79   1.366       .  D
C79          C80   1.534       .  S
C79         C551   1.446       .  S
C80          C84   1.529       .  S
C80          C82   1.534       .  S
C80          H86   1.112       .  S
C81          H87   1.086       .  S
C81          C82   1.365       .  D
C82         C564   1.446       .  S
C83          H88   1.083       .  S
C83          C84   1.360       .  D
C84         C549   1.434       .  S
C89          C90   1.540       .  S
C89          C95   1.543       .  S
C89          C93   1.545       .  S
C89         C545   1.518       .  S
C90          H97   1.083       .  S
C90          C91   1.359       .  D
C91          C92   1.528       .  S
C91         C541   1.432       .  S
C92          C96   1.535       .  S
C92          C94   1.534       .  S
C92          H98   1.112       .  S
C93          H99   1.086       .  S
C93          C94   1.367       .  D
C94         C543   1.450       .  S
C95         H100   1.086       .  S
C95          C96   1.365       .  D
C96         C557   1.447       .  S
C101        C102   1.543       .  S
C101        C107   1.542       .  S
C101        C105   1.542       .  S
C101        C534   1.517       .  S
C102        H109   1.086       .  S
C102        C103   1.365       .  D
C103        C104   1.532       .  S
C103        C538   1.446       .  S
C104        C108   1.527       .  S
C104        C106   1.533       .  S
C104        H110   1.112       .  S
C105        H111   1.087       .  S
C105        C106   1.365       .  D
C106        C539   1.444       .  S
C107        H112   1.082       .  S
C107        C108   1.359       .  D
C108        C531   1.431       .  S
C113        C114   1.542       .  S
C113        C119   1.543       .  S
C113        C117   1.542       .  S
C113        C524   1.516       .  S
C114        H121   1.087       .  S
C114        C115   1.364       .  D
C115        C116   1.533       .  S
C115        C530   1.444       .  S
C116        C120   1.528       .  S
C116        C118   1.533       .  S
C116        H122   1.112       .  S
C117        H123   1.087       .  S
C117        C118   1.364       .  D
C118        C527   1.445       .  S
C119        H124   1.083       .  S
C119        C120   1.360       .  D
C120        C532   1.432       .  S
C125        C126   1.542       .  S
C125        C131   1.543       .  S
C125        C129   1.543       .  S
C125        C515   1.517       .  S
C126        H133   1.087       .  S
C126        C127   1.365       .  D
C127        C128   1.535       .  S
C127        C520   1.445       .  S
C128        C132   1.528       .  S
C128        C130   1.534       .  S
C128        H134   1.112       .  S
C129        H135   1.087       .  S
C129        C130   1.365       .  D
C130        C521   1.447       .  S
C131        H136   1.082       .  S
C131        C132   1.359       .  D
C132        C513   1.433       .  S
In137       O139   2.265       .  S
In137       O140   2.233       .  S
In137       O148   2.226       .  S
In137       O142   2.322       .  S
In137       O144   2.324       .  S
In137       O145   2.233       .  S
In137       O146   2.227       .  S
In137       O149   2.274       .  S
C138        O144   1.267       .  A
C138        O146   1.255       .  A
C138        C151   1.484       .  S
O139        C147   1.263       .  A
O140        C147   1.258       .  A
C141        O148   1.255       .  A
C141        O142   1.266       .  A
C141        C349   1.483       .  S
C143        O145   1.257       .  A
C143        O149   1.264       .  A
C143        C522   1.441       .  S
C147        C529   1.437       .  S
In150       O152   2.265       .  S
In150       O153   2.232       .  S
In150       O161   2.227       .  S
In150       O155   2.319       .  S
In150       O157   2.322       .  S
In150       O158   2.230       .  S
In150       O159   2.228       .  S
In150       O162   2.266       .  S
C151        O157   1.267       .  A
C151        O159   1.255       .  A
O152        C160   1.263       .  A
O153        C160   1.257       .  A
C154        O161   1.256       .  A
C154        O155   1.267       .  A
C154        C399   1.483       .  S
C156        O158   1.258       .  A
C156        O162   1.264       .  A
C156        C540   1.437       .  S
C160        C512   1.437       .  S
C163        C164   1.540       .  S
C163        C169   1.544       .  S
C163        C167   1.541       .  S
C163        C507   1.514       .  S
C164        H171   1.087       .  S
C164        C165   1.363       .  D
C165        C166   1.533       .  S
C165        C511   1.443       .  S
C166        C170   1.528       .  S
C166        C168   1.533       .  S
C166        H172   1.112       .  S
C167        H173   1.087       .  S
C167        C168   1.364       .  D
C168        C506   1.442       .  S
C169        H174   1.083       .  S
C169        C170   1.361       .  D
C170        C514   1.433       .  S
In175       O177   2.267       .  S
In175       O178   2.233       .  S
In175       O186   2.221       .  S
In175       O180   2.322       .  S
In175       O182   2.320       .  S
In175       O183   2.231       .  S
In175       O184   2.224       .  S
In175       O187   2.266       .  S
C176        O182   1.267       .  A
C176        O184   1.256       .  A
C176        C189   1.483       .  S
O177        C185   1.264       .  A
O178        C185   1.257       .  A
C179        O186   1.255       .  A
C179        O180   1.266       .  A
C181        O183   1.258       .  A
C181        O187   1.264       .  A
C181        C528   1.438       .  S
C185        C519   1.438       .  S
In188       O190   2.268       .  S
In188       O191   2.233       .  S
In188       O199   2.224       .  S
In188       O193   2.320       .  S
In188       O195   2.320       .  S
In188       O196   2.229       .  S
In188       O197   2.226       .  S
In188       O200   2.263       .  S
C189        O195   1.267       .  A
C189        O197   1.256       .  A
O190        C198   1.264       .  A
O191        C198   1.257       .  A
C192        O199   1.255       .  A
C192        O193   1.266       .  A
C194        O196   1.258       .  A
C194        O200   1.264       .  A
C194        C505   1.436       .  S
C198        C537   1.439       .  S
C201        C202   1.538       .  S
C201        C207   1.542       .  S
C201        C205   1.540       .  S
C201        C508   1.508       .  S
C202        H209   1.087       .  S
C202        C203   1.360       .  D
C203        C204   1.532       .  S
C203        C500   1.437       .  S
C204        C208   1.534       .  S
C204        C206   1.532       .  S
C204        H210   1.112       .  S
C205        H211   1.087       .  S
C205        C206   1.362       .  D
C206        C501   1.439       .  S
C207        H212   1.086       .  S
C207        C208   1.366       .  D
C208        C503   1.442       .  S
C213        C214   1.540       .  S
C213        C219   1.545       .  S
C213        C217   1.538       .  S
C213        C492   1.512       .  S
C214        H221   1.087       .  S
C214        C215   1.361       .  D
C215        C216   1.532       .  S
C215        C502   1.439       .  S
C216        C220   1.534       .  S
C216        C218   1.531       .  S
C216        H222   1.112       .  S
C217        H223   1.087       .  S
C217        C218   1.360       .  D
C218        C498   1.438       .  S
C219        H224   1.086       .  S
C219        C220   1.368       .  D
C220        C495   1.445       .  S
C225        C226   1.539       .  S
C225        C231   1.546       .  S
C225        C229   1.539       .  S
C225        C487   1.514       .  S
C226        H233   1.087       .  S
C226        C227   1.362       .  D
C227        C228   1.530       .  S
C227        C497   1.437       .  S
C228        C232   1.533       .  S
C228        C230   1.529       .  S
C228        H234   1.113       .  S
C229        H235   1.087       .  S
C229        C230   1.361       .  D
C230        C499   1.437       .  S
C231        H236   1.086       .  S
C231        C232   1.369       .  D
C232        C486   1.446       .  S
C237        C238   1.539       .  S
C237        C243   1.546       .  S
C237        C241   1.537       .  S
C237        C554   1.511       .  S
C238        H245   1.087       .  S
C238        C239   1.361       .  D
C239        C240   1.532       .  S
C239        C483   1.440       .  S
C240        C244   1.534       .  S
C240        C242   1.530       .  S
C240        H246   1.112       .  S
C241        H247   1.087       .  S
C241        C242   1.358       .  D
C242        C481   1.434       .  S
C243        H248   1.086       .  S
C243        C244   1.370       .  D
C244        C496   1.445       .  S
C249        C250   1.538       .  S
C249        C255   1.546       .  S
C249        C253   1.540       .  S
C249        C569   1.514       .  S
C250        H257   1.087       .  S
C250        C251   1.360       .  D
C251        C252   1.531       .  S
C251        C479   1.436       .  S
C252        C256   1.533       .  S
C252        C254   1.531       .  S
C252        H258   1.113       .  S
C253        H259   1.087       .  S
C253        C254   1.362       .  D
C254        C484   1.440       .  S
C255        H260   1.086       .  S
C255        C256   1.369       .  D
C256        C485   1.446       .  S
C261        C262   1.539       .  S
C261        C267   1.545       .  S
C261        C265   1.539       .  S
C261        C533   1.510       .  S
C262        H269   1.087       .  S
C262        C263   1.360       .  D
C263        C264   1.528       .  S
C263        C482   1.434       .  S
C264        C268   1.530       .  S
C264        C266   1.530       .  S
C264        H270   1.113       .  S
C265        H271   1.087       .  S
C265        C266   1.360       .  D
C266        C480   1.436       .  S
C267        H272   1.086       .  S
C267        C268   1.368       .  D
C268        C504   1.442       .  S
C273        C274   1.539       .  S
C273        C279   1.545       .  S
C273        C277   1.538       .  S
C273        C516   1.510       .  S
C274        H281   1.087       .  S
C274        C275   1.361       .  D
C275        C276   1.530       .  S
C275        C476   1.438       .  S
C276        C280   1.531       .  S
C276        C278   1.528       .  S
C276        H282   1.113       .  S
C277        H283   1.087       .  S
C277        C278   1.360       .  D
C278        C473   1.433       .  S
C279        H284   1.086       .  S
C279        C280   1.368       .  D
C280        C477   1.442       .  S
C285        C286   1.537       .  S
C285        C291   1.547       .  S
C285        C289   1.538       .  S
C285        C546   1.512       .  S
C286        H293   1.087       .  S
C286        C287   1.358       .  D
C287        C288   1.530       .  S
C287        C474   1.433       .  S
C288        C292   1.533       .  S
C288        C290   1.531       .  S
C288        H294   1.113       .  S
C289        H295   1.087       .  S
C289        C290   1.360       .  D
C290        C470   1.437       .  S
C291        H296   1.086       .  S
C291        C292   1.371       .  D
C292        C471   1.446       .  S
C297        C298   1.538       .  S
C297        C303   1.546       .  S
C297        C301   1.539       .  S
C297        C578   1.512       .  S
C298        H305   1.087       .  S
C298        C299   1.359       .  D
C299        C300   1.531       .  S
C299        C469   1.437       .  S
C300        C304   1.534       .  S
C300        C302   1.532       .  S
C300        H306   1.112       .  S
C301        H307   1.087       .  S
C301        C302   1.360       .  D
C302        C475   1.438       .  S
C303        H308   1.086       .  S
C303        C304   1.369       .  D
C304        C467   1.447       .  S
C309        C310   1.540       .  S
C309        C315   1.542       .  S
C309        C313   1.539       .  S
C309        C523   1.510       .  S
C310        H317   1.087       .  S
C310        C311   1.361       .  D
C311        C312   1.532       .  S
C311        C463   1.439       .  S
C312        C316   1.534       .  S
C312        C314   1.531       .  S
C312        H318   1.112       .  S
C313        H319   1.087       .  S
C313        C314   1.361       .  D
C314        C465   1.438       .  S
C315        H320   1.086       .  S
C315        C316   1.366       .  D
C316        C478   1.442       .  S
C321        C322   1.539       .  S
C321        C327   1.547       .  S
C321        C325   1.537       .  S
C321        C457   1.512       .  S
C322        H329   1.087       .  S
C322        C323   1.360       .  D
C323        C324   1.530       .  S
C323        C466   1.437       .  S
C324        C328   1.533       .  S
C324        C326   1.531       .  S
C324        H330   1.113       .  S
C325        H331   1.087       .  S
C325        C326   1.359       .  D
C326        C462   1.436       .  S
C327        H332   1.086       .  S
C327        C328   1.370       .  D
C328        C468   1.446       .  S
C333        C334   1.538       .  S
C333        C339   1.546       .  S
C333        C337   1.540       .  S
C333        C454   1.513       .  S
C334        H341   1.087       .  S
C334        C335   1.361       .  D
C335        C336   1.530       .  S
C335        C461   1.436       .  S
C336        C340   1.533       .  S
C336        C338   1.532       .  S
C336        H342   1.113       .  S
C337        H343   1.087       .  S
C337        C338   1.362       .  D
C338        C464   1.440       .  S
C339        H344   1.086       .  S
C339        C340   1.368       .  D
C340        C472   1.446       .  S
In345       O347   2.268       .  S
In345       O348   2.224       .  S
In345       O356   2.223       .  S
In345       O350   2.321       .  S
In345       O352   2.324       .  S
In345       O353   2.228       .  S
In345       O354   2.224       .  S
In345       O357   2.273       .  S
C346        O352   1.268       .  A
C346        O354   1.255       .  A
C346        C359   1.483   1_455  S
O347        C355   1.265       .  A
O348        C355   1.257       .  A
C349        O356   1.256       .  A
C349        O350   1.267       .  A
C351        O353   1.255       .  A
C351        O357   1.263       .  A
C351        C452   1.437       .  S
C355        C575   1.437       .  S
In358       O360   2.261       .  S
In358       O361   2.251       .  S
In358       O369   2.273       .  S
In358       O363   2.289       .  S
In358       O365   2.325       .  S
In358       O366   2.249       .  S
In358       O367   2.229       .  S
In358       O370   2.262       .  S
C359        O365   1.265       .  A
C359        O367   1.254       .  A
O360        C368   1.262       .  A
O361        C368   1.260       .  A
C362        O369   1.257       .  A
C362        O363   1.259       .  A
C364        O366   1.260       .  A
C364        O370   1.263       .  A
C364        C449   1.443       .  S
C368        C568   1.442       .  S
C371        C372   1.543       .  S
C371        C377   1.542       .  S
C371        C375   1.544       .  S
C371        C488   1.521       .  S
C372        H379   1.086       .  S
C372        C373   1.365       .  D
C373        C374   1.534       .  S
C373        C581   1.447       .  S
C374        C378   1.529       .  S
C374        C376   1.534       .  S
C374        H380   1.112       .  S
C375        H381   1.086       .  S
C375        C376   1.367       .  D
C376        C450   1.449       .  S
C377        H382   1.083       .  S
C377        C378   1.360       .  D
C378        C574   1.432       .  S
C383        C384   1.540       .  S
C383        C389   1.540       .  S
C383        C387   1.546       .  S
C383        C458   1.519       .  S
C384        H391   1.083       .  S
C384        C385   1.358       .  D
C385        C386   1.530       .  S
C385        C566   1.433       .  S
C386        C390   1.536       .  S
C386        C388   1.535       .  S
C386        H392   1.112       .  S
C387        H393   1.086       .  S
C387        C388   1.368       .  D
C388        C587   1.452       .  S
C389        H394   1.087       .  S
C389        C390   1.363       .  D
C390        C451   1.444       .  S
In395       O397   2.271       .  S
In395       O398   2.235       .  S
In395       O406   2.227       .  S
In395       O400   2.319       .  S
In395       O402   2.317       .  S
In395       O403   2.226       .  S
In395       O404   2.225       .  S
In395       O407   2.263       .  S
C396        O402   1.267       .  A
C396        O404   1.256       .  A
C396        C409   1.482   1_545  S
O397        C405   1.263       .  A
O398        C405   1.257       .  A
C399        O406   1.256       .  A
C399        O400   1.267       .  A
C401        O403   1.257       .  A
C401        O407   1.264       .  A
C401        C447   1.435       .  S
C405        C552   1.440       .  S
In408       O410   2.270       .  S
In408       O411   2.253       .  S
In408       O419   2.277       .  S
In408       O413   2.282       .  S
In408       O415   2.321       .  S
In408       O416   2.250       .  S
In408       O417   2.228       .  S
In408       O420   2.254       .  S
C409        O415   1.266       .  A
C409        O417   1.255       .  A
O410        C418   1.262       .  A
O411        C418   1.259       .  A
C412        O419   1.257       .  A
C412        O413   1.258       .  A
C414        O416   1.262       .  A
C414        O420   1.262       .  A
C414        C446   1.441       .  S
C418        C544   1.444       .  S
C421        C422   1.544       .  S
C421        C427   1.543       .  S
C421        C425   1.540       .  S
C421        C491   1.517       .  S
C422        H429   1.086       .  S
C422        C423   1.366       .  D
C423        C424   1.533       .  S
C423        C562   1.447       .  S
C424        C428   1.528       .  S
C424        C426   1.532       .  S
C424        H430   1.112       .  S
C425        H431   1.087       .  S
C425        C426   1.363       .  D
C426        C448   1.441       .  S
C427        H432   1.083       .  S
C427        C428   1.361       .  D
C428        C542   1.432       .  S
C433        C434   1.540       .  S
C433        C439   1.543       .  S
C433        C437   1.544       .  S
C433        C453   1.519       .  S
C434        H441   1.087       .  S
C434        C435   1.363       .  D
C435        C436   1.533       .  S
C435        C560   1.444       .  S
C436        C440   1.528       .  S
C436        C438   1.534       .  S
C436        H442   1.112       .  S
C437        H443   1.086       .  S
C437        C438   1.366       .  D
C438        C445   1.448       .  S
C439        H444   1.082       .  S
C439        C440   1.361       .  D
C440        C550   1.434       .  S
C445        C446   1.209       .  T
C447        C448   1.206       .  T
C449        C450   1.210       .  T
C451        C452   1.207       .  T
C453        H455   1.087       .  S
C453        C454   1.353       .  D
C454        H456   1.080       .  S
C457        H459   1.080       .  S
C457        C458   1.355       .  D
C458        H460   1.087       .  S
C461        C462   1.202       .  T
C463        C464   1.204       .  T
C465        C466   1.203       .  T
C467        C468   1.209   1_556  T
C469        C470   1.203       .  T
C471        C472   1.209   1_556  T
C473        C474   1.201       .  T
C475        C476   1.203       .  T
C477        C478   1.206   1_556  T
C479        C480   1.202       .  T
C481        C482   1.201       .  T
C483        C484   1.205       .  T
C485        C486   1.208   1_554  T
C487        H489   1.080       .  S
C487        C488   1.354       .  D
C488        H490   1.087       .  S
C491        H493   1.087       .  S
C491        C492   1.352       .  D
C492        H494   1.080       .  S
C495        C496   1.208   1_556  T
C497        C498   1.203       .  T
C499        C500   1.203       .  T
C501        C502   1.204       .  T
C503        C504   1.206   1_556  T
C505        C506   1.206       .  T
C507        H509   1.088       .  S
C507        C508   1.349       .  D
C508        H510   1.081       .  S
C511        C512   1.207       .  T
C513        C514   1.200       .  T
C515        H517   1.087       .  S
C515        C516   1.352       .  D
C516        H518   1.080       .  S
C519        C520   1.208       .  T
C521        C522   1.209       .  T
C523        H525   1.081       .  S
C523        C524   1.350       .  D
C524        H526   1.088       .  S
C527        C528   1.208       .  T
C529        C530   1.207       .  T
C531        C532   1.200       .  T
C533        H535   1.080       .  S
C533        C534   1.352       .  D
C534        H536   1.087       .  S
C537        C538   1.208       .  T
C539        C540   1.207       .  T
C541        C542   1.200   1_565  T
C543        C544   1.211       .  T
C545        H547   1.087       .  S
C545        C546   1.355       .  D
C546        H548   1.080       .  S
C549        C550   1.201   1_545  T
C551        C552   1.209       .  T
C553        H555   1.087       .  S
C553        C554   1.354       .  D
C554        H556   1.081       .  S
C557        C558   1.209       .  T
C559        C560   1.207       .  T
C561        C562   1.209       .  T
C563        C564   1.209       .  T
C565        C566   1.200   1_655  T
C567        C568   1.209       .  T
C569        H571   1.081       .  S
C569        C570   1.353       .  D
C570        H572   1.087       .  S
C573        C574   1.200   1_455  T
C575        C576   1.207       .  T
C577        H579   1.087       .  S
C577        C578   1.353       .  D
C578        H580   1.081       .  S
C581        C582   1.209       .  T
C583        C584   1.208       .  T
C585        C586   1.210       .  T
C587        C588   1.212       .  T
