geometry optimzed in LAMMPS
_audit_creation_date              2020-11-30 
_audit_creation_method            'lammps2cif' 
_symmetry_space_group_name_H-M    'P1' 
_symmetry_Int_Tables_number       1 
_symmetry_cell_setting            triclinic 
loop_ 
_symmetry_equiv_pos_as_xyz 
  x,y,z 
_cell_length_a                    57.354143 
_cell_length_b                    57.245279593723296 
_cell_length_c                    48.283954367862236 
_cell_angle_alpha                 89.96191964959935 
_cell_angle_beta                  90.03332764409232 
_cell_angle_gamma                 90.0453526881315 
loop_ 
_atom_site_label 
_atom_site_type_symbol 
_atom_site_fract_x 
_atom_site_fract_y 
_atom_site_fract_z 
_atom_site_charge 
N1          N  0.62659495  0.30713116  0.67693948    -0.27100
N2          N  0.61934841  0.28644751  0.66836066    -0.35000
C3          C  0.59771152  0.28262517  0.67813741     0.01200
C4          C  0.59133003  0.30171370  0.69394368     0.07200
C5          C  0.61002266  0.31687659  0.69279570    -0.05900
H6          H  0.58772575  0.26683931  0.67475164     0.07900
H7          H  0.61147159  0.33378322  0.70265325     0.09100
Cu8        Cu  0.64030725  0.26397366  0.64581737     0.44200
Cu9        Cu  0.65849150  0.32128747  0.66649581     0.42000
Cu10       Cu  0.69782454  0.28616841  0.62582026     0.43900
N11         N  0.66564265  0.24429107  0.62609018    -0.34500
N12         N  0.68623171  0.25238650  0.61826031    -0.28800
C13         C  0.69846287  0.23490099  0.60665816    -0.04900
C14         C  0.68503099  0.21485652  0.60760318     0.07300
C15         C  0.66438190  0.22140669  0.62006282     0.01100
H16         H  0.71616884  0.23646650  0.59916181     0.08800
H17         H  0.64964528  0.21030199  0.62482626     0.07900
N18         N  0.70503788  0.32026523  0.63773806    -0.36000
N19         N  0.69048731  0.33294939  0.65267932    -0.28100
C20         C  0.69992973  0.35406573  0.65720345    -0.03400
C21         C  0.72147287  0.35479816  0.64454972     0.05200
C22         C  0.72424049  0.33303413  0.63237690     0.03300
H23         H  0.69172413  0.36786563  0.66898962     0.08400
H24         H  0.73907777  0.32679181  0.62072975     0.07300
N25         N  0.64254498  0.85995334  0.17901023    -0.27100
N26         N  0.63435912  0.88092277  0.18504194    -0.35000
C27         C  0.61238250  0.88272946  0.17561822     0.01200
C28         C  0.60666166  0.86204567  0.16262023     0.07200
C29         C  0.62616276  0.84801741  0.16495870    -0.05900
H30         H  0.60148678  0.89803088  0.17786947     0.07900
H31         H  0.62802176  0.83019755  0.15784568     0.09100
Cu32       Cu  0.65338955  0.90614372  0.20561103     0.44200
Cu33       Cu  0.67460746  0.84787535  0.19275347     0.42000
Cu34       Cu  0.70763654  0.88756697  0.23660765     0.43900
N35         N  0.67502240  0.92809958  0.22775685    -0.34500
N36         N  0.69442312  0.92116321  0.24005007    -0.28800
C37         C  0.70381451  0.93935338  0.25370782    -0.04900
C38         C  0.68976496  0.95864469  0.24943194     0.07300
C39         C  0.67173505  0.95093799  0.23282716     0.01100
H40         H  0.71988322  0.93866905  0.26542697     0.08800
H41         H  0.65712778  0.96106407  0.22528603     0.07900
N42         N  0.71749670  0.85338831  0.22850569    -0.36000
N43         N  0.70551198  0.83901887  0.21246414    -0.28100
C44         C  0.71651942  0.81831432  0.21145063    -0.03400
C45         C  0.73647222  0.81974104  0.22759500     0.05200
C46         C  0.73650668  0.84221580  0.23803964     0.03300
H47         H  0.71038291  0.80347596  0.19967027     0.08400
H48         H  0.74949196  0.84994754  0.25147412     0.07300
N49         N  0.68447172  0.18320017  0.19696252    -0.27100
N50         N  0.66528149  0.17316459  0.18750021    -0.35000
C51         C  0.66335518  0.15173530  0.19888372     0.01200
C52         C  0.68207305  0.14842393  0.21659086     0.07200
C53         C  0.69501707  0.16871547  0.21489354    -0.05900
H54         H  0.64918280  0.13969443  0.19498317     0.07900
H55         H  0.71115753  0.17256697  0.22556866     0.09100
Cu56       Cu  0.64234030  0.18997571  0.16065301     0.44200
Cu57       Cu  0.69664900  0.21547108  0.18419720     0.42000
Cu58       Cu  0.66294261  0.24650893  0.13418228     0.43900
N59         N  0.62273431  0.21206888  0.13549329    -0.34500
N60         N  0.63049345  0.23219925  0.12560761    -0.28800
C61         C  0.61381173  0.24197637  0.10987831    -0.04900
C62         C  0.59455823  0.22746804  0.11000373     0.07300
C63         C  0.60074302  0.20869568  0.12650785     0.01100
H64         H  0.61552264  0.25859614  0.09939208     0.08800
H65         H  0.59015512  0.19360589  0.13142720     0.07900
N66         N  0.69551120  0.25770950  0.14732609    -0.36000
N67         N  0.70782608  0.24621049  0.16599178    -0.28100
C68         C  0.72806411  0.25747742  0.17031730    -0.03400
C69         C  0.72851253  0.27713342  0.15353892     0.05200
C70         C  0.70756750  0.27672262  0.13929455     0.03300
H71         H  0.74131409  0.25170140  0.18470428     0.08400
H72         H  0.70152411  0.28933816  0.12422295     0.07300
N73         N  0.71276438  0.06973976  0.60677136    -0.27100
N74         N  0.69573578  0.08262061  0.61708120    -0.35000
C75         C  0.68339264  0.06962658  0.63517735     0.01200
C76         C  0.69328367  0.04760202  0.63623447     0.07200
C77         C  0.71184337  0.04834387  0.61803034    -0.05900
H78         H  0.66855031  0.07583151  0.64685988     0.07900
H79         H  0.72364638  0.03425677  0.61294186     0.09100
Cu80       Cu  0.69120575  0.11748129  0.60664132     0.44200
Cu81       Cu  0.73548434  0.08075107  0.57624544     0.42000
Cu82       Cu  0.73417135  0.14127353  0.55852108     0.43900
N83         N  0.69479532  0.15272994  0.59755700    -0.34500
N84         N  0.71129226  0.16146418  0.58143564    -0.28800
C85         C  0.71015135  0.18492157  0.58214930    -0.04900
C86         C  0.69194792  0.19118637  0.59933362     0.07300
C87         C  0.68253042  0.17039436  0.60864925     0.01100
H88         H  0.72176690  0.19651545  0.57105324     0.08800
H89         H  0.66842842  0.16824465  0.62330563     0.07900
N90         N  0.74942148  0.11613339  0.53365857    -0.36000
N91         N  0.74995101  0.09377411  0.54025962    -0.28100
C92         C  0.75600605  0.08130078  0.51783350    -0.03400
C93         C  0.75921926  0.09650713  0.49574116     0.05200
C94         C  0.75514180  0.11851629  0.50683789     0.03300
H95         H  0.75564110  0.06243442  0.51716691     0.08400
H96         H  0.75374627  0.13482816  0.49567363     0.07300
N97         N  0.70255755  0.10577180  0.26677661    -0.27100
N98         N  0.68965463  0.09212784  0.25085866    -0.35000
C99         C  0.67993868  0.10517918  0.23068030     0.01200
C100        C  0.68734994  0.12802760  0.23403222     0.07200
C101        C  0.70167374  0.12773081  0.25704057    -0.05900
H102        H  0.66886373  0.09843114  0.21439489     0.07900
H103        H  0.71071960  0.14242423  0.26617107     0.09100
Cu104      Cu  0.68764625  0.05620257  0.25666606     0.44200
Cu105      Cu  0.72042719  0.09427586  0.30143832     0.42000
Cu106      Cu  0.72250909  0.03265423  0.31406405     0.43900
N107        N  0.69265017  0.02082597  0.26438166    -0.34500
N108        N  0.70605644  0.01243664  0.28436847    -0.28800
C109        C  0.70699288  0.98904700  0.28218731    -0.04900
C110        C  0.69336625  0.98240509  0.25997085     0.07300
C111        C  0.68444383  0.00291671  0.24921096     0.01100
H112        H  0.71684214  0.97774492  0.29582107     0.08800
H113        H  0.67340910  0.00477102  0.23116284     0.07900
N114        N  0.73522331  0.05709619  0.34179619    -0.36000
N115        N  0.73451072  0.07977447  0.33695808    -0.28100
C116        C  0.74213911  0.09122419  0.35946514    -0.03400
C117        C  0.74793489  0.07499592  0.37969487     0.05200
C118        C  0.74332635  0.05347059  0.36758653     0.03300
H119        H  0.74214902  0.11003994  0.36131905     0.08400
H120        H  0.74475148  0.03641926  0.37706789     0.07300
N121        N  0.68713768  0.99285454  0.67324192    -0.27100
N122        N  0.66717045  0.00275801  0.68033320    -0.35000
C123        C  0.66607436  0.02404906  0.66836736     0.01200
C124        C  0.68623433  0.02736611  0.65300656     0.07200
C125        C  0.69905982  0.00725901  0.65657831    -0.05900
H126        H  0.65169102  0.03611480  0.67059267     0.07900
H127        H  0.71609008  0.00344174  0.64810024     0.09100
Cu128      Cu  0.64260750  0.98646345  0.70590754     0.44200
Cu129      Cu  0.69936780  0.96113504  0.68709744     0.42000
Cu130      Cu  0.66603563  0.93301321  0.73740442     0.43900
N131        N  0.62367769  0.96446637  0.73224148    -0.34500
N132        N  0.63292353  0.94572901  0.74395531    -0.28800
C133        C  0.61691348  0.93521190  0.75982523    -0.04900
C134        C  0.59640647  0.94762471  0.75801751     0.07300
C135        C  0.60118096  0.96610727  0.74028943     0.01100
H136        H  0.61992373  0.91927654  0.77133621     0.08800
H137        H  0.58927399  0.97970173  0.73380291     0.07900
N138        N  0.69824062  0.92066330  0.72568131    -0.36000
N139        N  0.71071844  0.93119143  0.70644403    -0.28100
C140        C  0.73069229  0.91940137  0.70271207    -0.03400
C141        C  0.73069248  0.90044456  0.72043097     0.05200
C142        C  0.70980666  0.90173682  0.73474797     0.03300
H143        H  0.74415770  0.92420748  0.68808739     0.08400
H144        H  0.70335809  0.88988915  0.75042866     0.07300
N145        N  0.30737502  0.98346908  0.70046754    -0.27100
N146        N  0.32786118  0.99308388  0.70573157    -0.35000
C147        C  0.32994658  0.01280953  0.69077798     0.01200
C148        C  0.30988638  0.01543915  0.67521174     0.07200
C149        C  0.29600936  0.99654019  0.68176018    -0.05900
H150        H  0.34501695  0.02418676  0.69100208     0.07900
H151        H  0.27873858  0.99275542  0.67392661     0.09100
Cu152      Cu  0.35205194  0.97831563  0.73224723     0.44200
Cu153      Cu  0.29517048  0.95355235  0.71932154     0.42000
Cu154      Cu  0.33188347  0.92605595  0.76920784     0.43900
N155        N  0.37275135  0.95835288  0.75815190    -0.34500
N156        N  0.36517308  0.93991532  0.77203231    -0.28800
C157        C  0.38316078  0.93015586  0.78551173    -0.04900
C158        C  0.40303391  0.94285382  0.77959391     0.07300
C159        C  0.39584833  0.96065602  0.76226233     0.01100
H160        H  0.38202170  0.91422460  0.79749917     0.08800
H161        H  0.40668059  0.97378447  0.75253735     0.07900
N162        N  0.29957598  0.91285105  0.75811927    -0.36000
N163        N  0.28612027  0.92319575  0.73962796    -0.28100
C164        C  0.26705690  0.91008939  0.73531557    -0.03400
C165        C  0.26861526  0.89036478  0.75184699     0.05200
C166        C  0.28944978  0.89271356  0.76604676     0.03300
H167        H  0.25354869  0.91440224  0.72055417     0.08400
H168        H  0.29700537  0.88037770  0.78046601     0.07300
N169        N  0.36612570  0.29817532  0.68487750    -0.27100
N170        N  0.37452032  0.27781432  0.67680033    -0.35000
C171        C  0.39664460  0.27576980  0.68563787     0.01200
C172        C  0.40222749  0.29569536  0.70033671     0.07200
C173        C  0.38250800  0.30951835  0.69955913    -0.05900
H174        H  0.40763070  0.26070423  0.68213345     0.07900
H175        H  0.38035235  0.32669675  0.70852585     0.09100
Cu176      Cu  0.35479467  0.25358781  0.65553828     0.44200
Cu177      Cu  0.33337970  0.30986120  0.67377377     0.42000
Cu178      Cu  0.29943722  0.27380326  0.62694155     0.43900
N179        N  0.33073651  0.23219617  0.63635315    -0.34500
N180        N  0.31114839  0.23963423  0.62488683    -0.28800
C181        C  0.29942849  0.22120015  0.61472040    -0.04900
C182        C  0.31211349  0.20127418  0.62047807     0.07300
C183        C  0.33181907  0.20882566  0.63422052     0.01100
H184        H  0.28247382  0.22216109  0.60495309     0.08800
H185        H  0.34580005  0.19815427  0.64235575     0.07900
N186        N  0.28969213  0.30712852  0.63892930    -0.36000
N187        N  0.30199008  0.31986236  0.65648082    -0.28100
C188        C  0.29094811  0.34014522  0.66094147    -0.03400
C189        C  0.27061408  0.34025858  0.64546484     0.05200
C190        C  0.27035504  0.31902552  0.63180019     0.03300
H191        H  0.29736387  0.35361348  0.67465539     0.08400
H192        H  0.25699070  0.31259491  0.61793325     0.07300
N193        N  0.46366995  0.83870341  0.12253298    -0.27100
N194        N  0.47486678  0.85135198  0.14121464    -0.35000
C195        C  0.45942985  0.85947081  0.15980743     0.01200
C196        C  0.43756773  0.85129140  0.15265378     0.07200
C197        C  0.44086238  0.83808529  0.12902921    -0.05900
H198        H  0.46384118  0.87035279  0.17736068     0.07900
H199        H  0.42757593  0.82941061  0.11688057     0.09100
Cu200      Cu  0.51073743  0.85629168  0.14127756     0.44200
Cu201      Cu  0.47952185  0.82544294  0.08732874     0.42000
Cu202      Cu  0.54226141  0.82685672  0.08679312     0.43900
N203        N  0.54683866  0.85395491  0.13974526    -0.34500
N204        N  0.55815114  0.84161746  0.12091456    -0.28800
C205        C  0.58110879  0.84232407  0.12641625    -0.04900
C206        C  0.58439544  0.85606927  0.14954741     0.07300
C207        C  0.56238423  0.86326019  0.15746183     0.01100
H208        H  0.59444774  0.83410572  0.11394521     0.08800
H209        H  0.55795755  0.87410223  0.17503277     0.07900
N210        N  0.52236420  0.82203335  0.05163265    -0.36000
N211        N  0.49935711  0.82157149  0.05175155    -0.28100
C212        C  0.49163306  0.82284138  0.02551945    -0.03400
C213        C  0.51071519  0.82441058  0.00788258     0.05200
C214        C  0.52991081  0.82363288  0.02537101     0.03300
H215        H  0.47343203  0.82458629  0.02010772     0.08400
H216        H  0.54799746  0.82614152  0.01984511     0.07300
N217        N  0.45650745  0.91816032  0.80662781    -0.27100
N218        N  0.46536628  0.93425085  0.79001439    -0.35000
C219        C  0.44769224  0.94606374  0.77809636     0.01200
C220        C  0.42690914  0.93680895  0.78778165     0.07200
C221        C  0.43318537  0.91922880  0.80578921    -0.05900
H222        H  0.44982484  0.95997570  0.76313437     0.07900
H223        H  0.42168623  0.90785468  0.81736048     0.09100
Cu224      Cu  0.50106286  0.93865463  0.78414866     0.44200
Cu225      Cu  0.47550064  0.89541644  0.83058624     0.42000
Cu226      Cu  0.53639861  0.90119247  0.82989706     0.43900
N227        N  0.53733067  0.93712812  0.78334276    -0.34500
N228        N  0.54967263  0.92326676  0.79968728    -0.28800
C229        C  0.57231977  0.92539570  0.79331569    -0.04900
C230        C  0.57451945  0.94140870  0.77208263     0.07300
C231        C  0.55200706  0.94860784  0.76623691     0.01100
H232        H  0.58617420  0.91573277  0.80331383     0.08800
H233        H  0.54662477  0.96070180  0.75024233     0.07900
N234        N  0.51928822  0.88033589  0.85851689    -0.36000
N235        N  0.49644805  0.87789038  0.85811301    -0.28100
C236        C  0.48970990  0.86512877  0.87998928    -0.03400
C237        C  0.50932057  0.85920719  0.89527628     0.05200
C238        C  0.52782890  0.86914300  0.88082733     0.03300
H239        H  0.47168010  0.86162602  0.88498295     0.08400
H240        H  0.54600813  0.86936252  0.88674288     0.07300
N241        N  0.54569406  0.24626353  0.06749894    -0.27100
N242        N  0.53539049  0.22991228  0.08249004    -0.35000
C243        C  0.55121891  0.22035310  0.09971463     0.01200
C244        C  0.57237846  0.23142677  0.09543823     0.07200
C245        C  0.56821746  0.24773943  0.07492476    -0.05900
H246        H  0.54743202  0.20686336  0.11476035     0.07900
H247        H  0.58062661  0.25983822  0.06601664     0.09100
Cu248      Cu  0.49981279  0.22333467  0.08056434     0.44200
Cu249      Cu  0.52896805  0.26587954  0.03747387     0.42000
Cu250      Cu  0.46669573  0.26158445  0.03429755     0.43900
N251        N  0.46366921  0.22546931  0.07998562    -0.34500
N252        N  0.45178754  0.24006070  0.06407780    -0.28800
C253        C  0.42908414  0.23886379  0.07087983    -0.04900
C254        C  0.42653857  0.22264648  0.09190045     0.07300
C255        C  0.44877694  0.21443420  0.09710580     0.01100
H256        H  0.41550441  0.24932460  0.06149527     0.08800
H257        H  0.45391934  0.20212869  0.11298522     0.07900
N258        N  0.48627905  0.28014353  0.00558243    -0.36000
N259        N  0.50922188  0.28165715  0.00687662    -0.28100
C260        C  0.51706567  0.29329362  0.98457617    -0.03400
C261        C  0.49813611  0.29947548  0.96824658     0.05200
C262        C  0.47886912  0.29084675  0.98237942     0.03300
H263        H  0.53531632  0.29636642  0.98033069     0.08400
H264        H  0.46086061  0.29132176  0.97576515     0.07300
N265        N  0.54425320  0.31686646  0.74085074    -0.27100
N266        N  0.53307175  0.30300953  0.72341293    -0.35000
C267        C  0.54812813  0.29525060  0.70416581     0.01200
C268        C  0.56969200  0.30497249  0.70960802     0.07200
C269        C  0.56663823  0.31862062  0.73291248    -0.05900
H270        H  0.54355490  0.28390701  0.68708802     0.07900
H271        H  0.57979513  0.32871131  0.74363973     0.09100
Cu272      Cu  0.49746697  0.29730143  0.72489052     0.44200
Cu273      Cu  0.52902231  0.33121422  0.77579880     0.42000
Cu274      Cu  0.46649432  0.33032731  0.77702422     0.43900
N275        N  0.46162137  0.30132583  0.72547351    -0.34500
N276        N  0.45052588  0.31488175  0.74327953    -0.28800
C277        C  0.42772686  0.31520854  0.73685076    -0.00100
C278        C  0.42435383  0.30093125  0.71415876     0.07300
C279        C  0.44613119  0.29234532  0.70749343     0.01100
H280        H  0.41453133  0.32461112  0.74831901     0.08800
H281        H  0.45048702  0.28080779  0.69053111     0.07900
N282        N  0.48666018  0.33599649  0.81188536    -0.36000
N283        N  0.50966861  0.33627347  0.81148955    -0.28100
C284        C  0.51763222  0.33534294  0.83765000    -0.03400
C285        C  0.49870234  0.33415831  0.85554320     0.05200
C286        C  0.47935231  0.33487195  0.83828213     0.03300
H287        H  0.53586489  0.33354498  0.84289101     0.08400
H288        H  0.46133768  0.33230343  0.84411963     0.07300
N289        N  0.38003811  0.85276444  0.18425194    -0.27100
N290        N  0.38843708  0.87311342  0.19244375    -0.35000
C291        C  0.41013503  0.87573871  0.18240049     0.01200
C292        C  0.41546240  0.85623589  0.16679079     0.07200
C293        C  0.39596908  0.84206098  0.16823384    -0.05900
H294        H  0.42117190  0.89074467  0.18614846     0.07900
H295        H  0.39387103  0.82487591  0.15925406     0.09100
Cu296      Cu  0.36972027  0.89613720  0.21680694     0.44200
Cu297      Cu  0.34843451  0.83984185  0.19818285     0.42000
Cu298      Cu  0.31717202  0.87422141  0.25002764     0.43900
N299        N  0.34759523  0.91648573  0.24048955    -0.34500
N300        N  0.32899524  0.90845064  0.25359949    -0.28800
C301        C  0.31855983  0.92630027  0.26683448    -0.04900
C302        C  0.33103928  0.94649511  0.26138393     0.07300
C303        C  0.34928122  0.93963719  0.24462904     0.01100
H304        H  0.30260911  0.92482657  0.27866125     0.08800
H305        H  0.36274199  0.95066000  0.23591513     0.07900
N306        N  0.30699646  0.84110435  0.23703365    -0.36000
N307        N  0.31827883  0.82899331  0.21795266    -0.28100
C308        C  0.30661418  0.80911123  0.21289158    -0.03400
C309        C  0.28696888  0.80863800  0.22934761     0.05200
C310        C  0.28773051  0.82919181  0.24451533     0.03300
H311        H  0.31173208  0.79622062  0.19768848     0.08400
H312        H  0.27496106  0.83544396  0.25921391     0.07300
N313        N  0.32639005  0.17228995  0.20796422    -0.27100
N314        N  0.34463577  0.16251669  0.19589898    -0.35000
C315        C  0.34808930  0.14119158  0.20704920     0.01200
C316        C  0.33137151  0.13760692  0.22729329     0.07200
C317        C  0.31800291  0.15768643  0.22734238    -0.05900
H318        H  0.36183718  0.12930665  0.20103262     0.07900
H319        H  0.30289414  0.16122354  0.24006702     0.09100
Cu320      Cu  0.36398394  0.17919145  0.16523610     0.44200
Cu321      Cu  0.31225308  0.20419256  0.19636422     0.42000
Cu322      Cu  0.33756211  0.23219448  0.13709819     0.43900
N323        N  0.37975520  0.20061663  0.13583516    -0.34500
N324        N  0.36970666  0.21931672  0.12501535    -0.28800
C325        C  0.38454709  0.22952860  0.10719154    -0.04900
C326        C  0.40502193  0.21684502  0.10698297     0.07300
C327        C  0.40142732  0.19864983  0.12538755     0.01100
H328        H  0.38101582  0.24557941  0.09612197     0.08800
H329        H  0.41376152  0.18519903  0.13112404     0.07900
N330        N  0.30775213  0.24436090  0.15644447    -0.36000
N331        N  0.29868115  0.23426386  0.17857278    -0.28100
C332        C  0.27973847  0.24633559  0.18652726    -0.03400
C333        C  0.27676371  0.26495046  0.16860792     0.05200
C334        C  0.29488427  0.26318640  0.14974854     0.03300
H335        H  0.26888222  0.24186264  0.20406933     0.08400
H336        H  0.29854685  0.27462907  0.13245916     0.07300
N337        N  0.28702999  0.05487942  0.62309700    -0.27100
N338        N  0.30240487  0.06870193  0.63529778    -0.35000
C339        C  0.31329455  0.05668263  0.65544456     0.01200
C340        C  0.30409094  0.03438451  0.65603259     0.07200
C341        C  0.28748977  0.03382974  0.63534489    -0.05900
H342        H  0.32642603  0.06385450  0.66911158     0.07900
H343        H  0.27669727  0.01915563  0.62939548     0.09100
Cu344      Cu  0.30655069  0.10369589  0.62558222     0.44200
Cu345      Cu  0.26718778  0.06431813  0.58918914     0.42000
Cu346      Cu  0.26831703  0.12480113  0.57151457     0.43900
N347        N  0.30295580  0.13863430  0.61529716    -0.34500
N348        N  0.28806069  0.14630492  0.59647340    -0.28800
C349        C  0.28902062  0.16972256  0.59549454    -0.04900
C350        C  0.30543609  0.17711021  0.61445783     0.07300
C351        C  0.31398708  0.15701318  0.62666363     0.01100
H352        H  0.27879471  0.18050210  0.58165974     0.08800
H353        H  0.32694424  0.15582693  0.64289702     0.07900
N354        N  0.25650200  0.09927305  0.54489291    -0.36000
N355        N  0.25609142  0.07687701  0.55132703    -0.28100
C356        C  0.25258363  0.06434649  0.52817713    -0.03400
C357        C  0.25093509  0.07961639  0.50591710     0.05200
C358        C  0.25325735  0.10165158  0.51751539     0.03300
H359        H  0.25343635  0.04549445  0.52743485     0.08400
H360        H  0.25517073  0.11804872  0.50661900     0.07300
N361        N  0.31504437  0.09407154  0.27857374    -0.27100
N362        N  0.32699674  0.08074077  0.26132179    -0.35000
C363        C  0.33530970  0.09420716  0.24060930     0.01200
C364        C  0.32793061  0.11695849  0.24504371     0.07200
C365        C  0.31514525  0.11616574  0.26924267    -0.05900
H366        H  0.34521453  0.08778054  0.22314536     0.07900
H367        H  0.30636134  0.13057139  0.27928629     0.09100
Cu368      Cu  0.32916491  0.04456364  0.26604463     0.44200
Cu369      Cu  0.29862212  0.08204651  0.31390523     0.42000
Cu370      Cu  0.29486293  0.02028867  0.32351005     0.43900
N371        N  0.32469968  0.00895196  0.27375757    -0.34500
N372        N  0.31145321  0.00035680  0.29377005    -0.28800
C373        C  0.31149954  0.97690262  0.29227088    -0.04900
C374        C  0.32564946  0.97037821  0.27050631     0.07300
C375        C  0.33377387  0.99107890  0.25923635     0.01100
H376        H  0.30225879  0.96546838  0.30634847     0.08800
H377        H  0.34519493  0.99303411  0.24156044     0.07900
N378        N  0.28289961  0.04402589  0.35242294    -0.36000
N379        N  0.28428594  0.06683364  0.34877897    -0.28100
C380        C  0.27651141  0.07765302  0.37163886    -0.03400
C381        C  0.26994817  0.06082327  0.39077318     0.05200
C382        C  0.27427600  0.03965990  0.37778636     0.03300
H383        H  0.27668705  0.09638926  0.37447635     0.08400
H384        H  0.27193382  0.02233284  0.38627640     0.07300
N385        N  0.86214232  0.80312310  0.70386472    -0.27100
N386        N  0.87057910  0.78318770  0.71327973    -0.35000
C387        C  0.89249432  0.78053028  0.70402827     0.01200
C388        C  0.89789882  0.79961457  0.68771522     0.07200
C389        C  0.87828455  0.81358673  0.68795065    -0.05900
H390        H  0.90343810  0.76557382  0.70832878     0.07900
H391        H  0.87600861  0.83024043  0.67769618     0.09100
Cu392      Cu  0.85099619  0.76008576  0.73642031     0.44200
Cu393      Cu  0.82955080  0.81523520  0.71450043     0.42000
Cu394      Cu  0.79391011  0.77937538  0.76030526     0.43900
N395        N  0.82670903  0.73850412  0.75489468    -0.34500
N396        N  0.80622324  0.74544908  0.76437856    -0.28800
C397        C  0.79438175  0.72669395  0.77361598    -0.04900
C398        C  0.80797853  0.70709863  0.76924720     0.07300
C399        C  0.82830766  0.71520365  0.75739205     0.01100
H400        H  0.77672024  0.72715024  0.78145611     0.08800
H401        H  0.84295785  0.70489287  0.75037494     0.07900
N402        N  0.78490584  0.81280886  0.74751102    -0.36000
N403        N  0.79787058  0.82544305  0.73052728    -0.28100
C404        C  0.78701241  0.84567282  0.72513932    -0.03400
C405        C  0.76606568  0.84583227  0.73932402     0.05200
C406        C  0.76531558  0.82476267  0.75335053     0.03300
H407        H  0.79390800  0.85901140  0.71155974     0.08400
H408        H  0.75132536  0.81836549  0.76633125     0.07300
N409        N  0.18532134  0.68236575  0.19135269    -0.27100
N410        N  0.16694575  0.67124537  0.20136545    -0.35000
C411        C  0.16541859  0.65014681  0.18908545     0.01200
C412        C  0.18356246  0.64817723  0.17029129     0.07200
C413        C  0.19572336  0.66892826  0.17224039    -0.05900
H414        H  0.15207376  0.63729035  0.19342046     0.07900
H415        H  0.21142905  0.67368342  0.16118470     0.09100
Cu416      Cu  0.14482993  0.68603689  0.23074185     0.44200
Cu417      Cu  0.19720674  0.71428004  0.20554850     0.42000
Cu418      Cu  0.16583940  0.74145120  0.26020352     0.43900
N419        N  0.12574278  0.70693203  0.25783159    -0.34500
N420        N  0.13372737  0.72657752  0.26876159    -0.28800
C421        C  0.11706819  0.73613597  0.28464134    -0.04900
C422        C  0.09754565  0.72206026  0.28347384     0.07300
C423        C  0.10358482  0.70369103  0.26628916     0.01100
H424        H  0.11879600  0.75261900  0.29540063     0.08800
H425        H  0.09261150  0.68923769  0.26006026     0.07900
N426        N  0.19762239  0.75387724  0.24624624    -0.36000
N427        N  0.20908470  0.74377348  0.22581204    -0.28100
C428        C  0.22916085  0.75528980  0.22149093    -0.03400
C429        C  0.23039691  0.77365456  0.24014776     0.05200
C430        C  0.21005015  0.77225898  0.25544459     0.03300
H431        H  0.24178649  0.75051066  0.20587882     0.08400
H432        H  0.20471370  0.78370340  0.27209630     0.07300
N433        N  0.82000629  0.66911489  0.18737116    -0.27100
N434        N  0.84046854  0.66105633  0.19560158    -0.35000
C435        C  0.84477270  0.64077005  0.18239836     0.01200
C436        C  0.82624964  0.63621217  0.16479020     0.07200
C437        C  0.81094046  0.65452612  0.16847157    -0.05900
H438        H  0.86048328  0.63051922  0.18480544     0.07900
H439        H  0.79437740  0.65710516  0.15818402     0.09100
Cu440      Cu  0.86192603  0.67934871  0.22278862     0.44200
Cu441      Cu  0.80495271  0.69956205  0.20159025     0.42000
Cu442      Cu  0.83737884  0.73464845  0.24873352     0.43900
N443        N  0.87947371  0.70249580  0.24872340    -0.34500
N444        N  0.87027966  0.72201860  0.25853371    -0.28800
C445        C  0.88600673  0.73270628  0.27481605    -0.04900
C446        C  0.90613770  0.71948457  0.27506458     0.07300
C447        C  0.90146007  0.70048460  0.25826321     0.01100
H448        H  0.88312430  0.74918021  0.28522983     0.08800
H449        H  0.91310796  0.68620839  0.25340686     0.07900
N450        N  0.80469362  0.74415457  0.23417063    -0.36000
N451        N  0.79271405  0.73087245  0.21691794    -0.28100
C452        C  0.77266250  0.74163023  0.21036399    -0.03400
C453        C  0.77197995  0.76281720  0.22396943     0.05200
C454        C  0.79259722  0.76389192  0.23898369     0.03300
H455        H  0.75980527  0.73480370  0.19609003     0.08400
H456        H  0.79864389  0.77804487  0.25196321     0.07300
N457        N  0.94587240  0.81626439  0.64275664    -0.27100
N458        N  0.95674398  0.80241668  0.66050633    -0.35000
C459        C  0.94132710  0.79444234  0.67917691     0.01200
C460        C  0.91982418  0.80390620  0.67305253     0.07200
C461        C  0.92326711  0.81772097  0.64993721    -0.05900
H462        H  0.94556637  0.78286863  0.69616992     0.07900
H463        H  0.91022209  0.82754635  0.63869369     0.09100
Cu464      Cu  0.99221599  0.79600601  0.66034381     0.44200
Cu465      Cu  0.96164831  0.83064781  0.60811634     0.42000
Cu466      Cu  0.02409965  0.82731652  0.60850409     0.43900
N467        N  0.02813682  0.79896431  0.66065074    -0.34500
N468        N  0.03959569  0.81194097  0.64255614    -0.28800
C469        C  0.06222728  0.81254857  0.64960997    -0.04900
C470        C  0.06516327  0.79908662  0.67308327     0.07300
C471        C  0.04325771  0.79061531  0.67953391     0.01100
H472        H  0.07556229  0.82197939  0.63836533     0.08800
H473        H  0.03850495  0.77999301  0.69719592     0.07900
N474        N  0.00483157  0.83438730  0.57334211    -0.36000
N475        N  0.98185219  0.83557357  0.57304421    -0.28100
C476        C  0.97445981  0.83543144  0.54661484    -0.03400
C477        C  0.99374798  0.83382661  0.52931451     0.05200
C478        C  0.01269360  0.83346746  0.54718460     0.03300
H479        H  0.95630263  0.83441932  0.54072860     0.08400
H480        H  0.03071247  0.83024035  0.54187111     0.07300
N481        N  0.04741471  0.74317872  0.32201364    -0.27100
N482        N  0.03707443  0.72787127  0.30555305    -0.35000
C483        C  0.05337424  0.71742132  0.28976915     0.01200
C484        C  0.07488108  0.72680248  0.29651160     0.07200
C485        C  0.07043789  0.74305665  0.31696516    -0.05900
H486        H  0.04971784  0.70461622  0.27387706     0.07900
H487        H  0.08297700  0.75418938  0.32727620     0.09100
Cu488      Cu  0.00110598  0.72360052  0.30341136     0.44200
Cu489      Cu  0.03031975  0.76391052  0.35067880     0.42000
Cu490      Cu  0.96817534  0.76245524  0.34826184     0.43900
N491        N  0.96501117  0.72689365  0.30218986    -0.34500
N492        N  0.95330809  0.74173298  0.31789839    -0.28800
C493        C  0.93066807  0.74111294  0.31081356    -0.04900
C494        C  0.92790069  0.72499807  0.28979184     0.07300
C495        C  0.94999040  0.71622267  0.28485503     0.01100
H496        H  0.91724119  0.75173082  0.32022555     0.08800
H497        H  0.95491220  0.70361984  0.26923301     0.07900
N498        N  0.98656813  0.78026885  0.37847904    -0.36000
N499        N  0.00955064  0.78090291  0.37935537    -0.28100
C500        C  0.01628533  0.79241482  0.40226388    -0.03400
C501        C  0.99652419  0.79938143  0.41668599     0.05200
C502        C  0.97800243  0.79133366  0.40079060     0.03300
H503        H  0.03428041  0.79458691  0.40841734     0.08400
H504        H  0.95960978  0.79266088  0.40537634     0.07300
N505        N  0.12237096  0.80097773  0.70494822    -0.27100
N506        N  0.11519481  0.78027171  0.71357502    -0.35000
C507        C  0.09344280  0.77648569  0.70409648     0.01200
C508        C  0.08693096  0.79561575  0.68841859     0.07200
C509        C  0.10564365  0.81075777  0.68933924    -0.05900
H510        H  0.08345251  0.76072528  0.70763735     0.07900
H511        H  0.10696659  0.82772123  0.67956877     0.09100
Cu512      Cu  0.13625311  0.75782112  0.73603511     0.44200
Cu513      Cu  0.15422935  0.81537780  0.71522481     0.42000
Cu514      Cu  0.19228922  0.78145600  0.75886782     0.43900
N515        N  0.16147450  0.73865562  0.75667087    -0.34500
N516        N  0.18142230  0.74738581  0.76577440    -0.28800
C517        C  0.19379769  0.73024196  0.77786763    -0.04900
C518        C  0.18116344  0.70974520  0.77589765     0.07300
C519        C  0.16080695  0.71566812  0.76232491     0.01100
H520        H  0.21112556  0.73236415  0.78637455     0.08800
H521        H  0.14668092  0.70409557  0.75661039     0.07900
N522        N  0.19985869  0.81518180  0.74600042    -0.36000
N523        N  0.18588681  0.82742194  0.72977752    -0.28100
C524        C  0.19554018  0.84839292  0.72488080    -0.03400
C525        C  0.21659739  0.84946820  0.73866601     0.05200
C526        C  0.21886592  0.82807060  0.75185499     0.03300
H527        H  0.18775684  0.86190238  0.71221586     0.08400
H528        H  0.23320091  0.82217408  0.76461972     0.07300
N529        N  0.19493168  0.49039949  0.70587770    -0.27100
N530        N  0.17427827  0.49943607  0.70005411    -0.35000
C531        C  0.17201534  0.51980502  0.71374022     0.01200
C532        C  0.19211411  0.52349440  0.72901725     0.07200
C533        C  0.20619117  0.50451465  0.72359439    -0.05900
H534        H  0.15681730  0.53095898  0.71280741     0.07900
H535        H  0.22352502  0.50131388  0.73158302     0.09100
Cu536      Cu  0.15009318  0.48332303  0.67418216     0.44200
Cu537      Cu  0.20791328  0.45986305  0.68924273     0.42000
Cu538      Cu  0.17193773  0.42950382  0.64216967     0.43900
N539        N  0.13068272  0.46235477  0.64754698    -0.34500
N540        N  0.13916875  0.44331460  0.63576084    -0.28800
C541        C  0.12278126  0.43371680  0.61960579    -0.04900
C542        C  0.10288816  0.44713914  0.62132191     0.07300
C543        C  0.10838811  0.46518431  0.63927328     0.01100
H544        H  0.12512774  0.41779424  0.60788487     0.08800
H545        H  0.09710957  0.47928327  0.64579467     0.07900
N546        N  0.20466285  0.41766605  0.65289751    -0.36000
N547        N  0.21808709  0.42919612  0.67038775    -0.28100
C548        C  0.23796763  0.41727345  0.67416256    -0.03400
C549        C  0.23695498  0.39717611  0.65841903     0.05200
C550        C  0.21556195  0.39793466  0.64509517     0.03300
H551        H  0.25191600  0.42257875  0.68788895     0.08400
H552        H  0.20822667  0.38505277  0.63121767     0.07300
N553        N  0.81290736  0.48915145  0.68358799    -0.27100
N554        N  0.83309930  0.49930972  0.67804910    -0.35000
C555        C  0.83419894  0.51972716  0.69192537     0.01200
C556        C  0.81385017  0.52216165  0.70710051     0.07200
C557        C  0.80085596  0.50248290  0.70134846    -0.05900
H558        H  0.84895452  0.53151019  0.69165530     0.07900
H559        H  0.78379438  0.49814616  0.70940785     0.09100
Cu560      Cu  0.85848120  0.48372230  0.65335296     0.44200
Cu561      Cu  0.80158322  0.45794416  0.66691428     0.42000
Cu562      Cu  0.83805709  0.43033991  0.61828929     0.43900
N563        N  0.87952030  0.46198097  0.62944404    -0.34500
N564        N  0.87167287  0.44321318  0.61641893    -0.28800
C565        C  0.88947470  0.43255595  0.60365734    -0.04900
C566        C  0.90958987  0.44500079  0.60895172     0.07300
C567        C  0.90272523  0.46359358  0.62535680     0.01100
H568        H  0.88791692  0.41645431  0.59208682     0.08800
H569        H  0.91377564  0.47705286  0.63403639     0.07900
N570        N  0.80562543  0.41723784  0.62846561    -0.36000
N571        N  0.79215746  0.42749954  0.64694458    -0.28100
C572        C  0.77287866  0.41456453  0.65072309    -0.03400
C573        C  0.77435183  0.39507344  0.63377892     0.05200
C574        C  0.79535481  0.39735823  0.61997826     0.03300
H575        H  0.75923198  0.41884182  0.66529615     0.08400
H576        H  0.80288887  0.38517763  0.60538811     0.07300
N577        N  0.20625645  0.60676491  0.12001461    -0.27100
N578        N  0.19331487  0.59258998  0.13526571    -0.35000
C579        C  0.18270424  0.60516355  0.15519646     0.01200
C580        C  0.18953135  0.62824362  0.15243050     0.07200
C581        C  0.20445599  0.62859119  0.12997740    -0.05900
H582        H  0.17146949  0.59791823  0.17101569     0.07900
H583        H  0.21340651  0.64361034  0.12147032     0.09100
Cu584      Cu  0.19225727  0.55656149  0.12948096     0.44200
Cu585      Cu  0.22550071  0.59636668  0.08586415     0.42000
Cu586      Cu  0.22827782  0.53457611  0.07369780     0.43900
N587        N  0.19763721  0.52120105  0.12167007    -0.34500
N588        N  0.21146703  0.51332027  0.10186870    -0.28800
C589        C  0.21218035  0.48986473  0.10299814    -0.04900
C590        C  0.19800180  0.48260257  0.12443576     0.07300
C591        C  0.18899930  0.50287829  0.13580657     0.01100
H592        H  0.22215001  0.47894496  0.08908534     0.08800
H593        H  0.17737152  0.50425425  0.15336325     0.07900
N594        N  0.24051213  0.55912472  0.04597007    -0.36000
N595        N  0.23965675  0.58186463  0.05035506    -0.28100
C596        C  0.24649515  0.59303680  0.02723666    -0.03400
C597        C  0.25177070  0.57648910  0.00719356     0.05200
C598        C  0.24784308  0.55516583  0.02000285     0.03300
H599        H  0.24602986  0.61180052  0.02469297     0.08400
H600        H  0.24903547  0.53797778  0.01085654     0.07300
N601        N  0.21518226  0.56567182  0.77812115    -0.27100
N602        N  0.19796117  0.57798933  0.76724227    -0.35000
C603        C  0.18684335  0.56483666  0.74827165     0.01200
C604        C  0.19774862  0.54332677  0.74710700     0.07200
C605        C  0.21563270  0.54446984  0.76624517    -0.05900
H606        H  0.17225113  0.57068483  0.73587480     0.07900
H607        H  0.22794270  0.53083157  0.77140526     0.09100
Cu608      Cu  0.19156352  0.61260268  0.77738801     0.44200
Cu609      Cu  0.23645847  0.57751357  0.80975068     0.42000
Cu610      Cu  0.23173925  0.63825032  0.82688125     0.43900
N611        N  0.19309376  0.64801808  0.78630303    -0.34500
N612        N  0.20861450  0.65742678  0.80322513    -0.28800
C613        C  0.20647569  0.68079393  0.80251493    -0.04900
C614        C  0.18864840  0.68632128  0.78443542     0.07300
C615        C  0.18046818  0.66517241  0.77459541     0.01100
H616        H  0.21721766  0.69283273  0.81416862     0.08800
H617        H  0.16701197  0.66247192  0.75921229     0.07900
N618        N  0.24804725  0.61410701  0.85207979    -0.36000
N619        N  0.24976725  0.59173692  0.84580318    -0.28100
C620        C  0.25657562  0.57986780  0.86840671    -0.03400
C621        C  0.25905119  0.59549410  0.89017795     0.05200
C622        C  0.25374289  0.61710069  0.87882568     0.03300
H623        H  0.25747714  0.56102380  0.86939593     0.08400
H624        H  0.25153043  0.63338869  0.88984754     0.07300
N625        N  0.81024465  0.59486873  0.11099083    -0.27100
N626        N  0.82489029  0.58189142  0.12552156    -0.35000
C627        C  0.83341187  0.59472717  0.14661194     0.01200
C628        C  0.82336290  0.61666465  0.14537828     0.07200
C629        C  0.80878304  0.61612046  0.12260655    -0.05900
H630        H  0.84524969  0.58826584  0.16229262     0.07900
H631        H  0.79781522  0.63011374  0.11505193     0.09100
Cu632      Cu  0.83001731  0.54654409  0.11794803     0.44200
Cu633      Cu  0.79278035  0.58348018  0.07596835     0.42000
Cu634      Cu  0.79227691  0.52182904  0.06464884     0.43900
N635        N  0.82557429  0.51095068  0.11132433    -0.34500
N636        N  0.81066744  0.50212593  0.09320314    -0.28800
C637        C  0.81026123  0.47875560  0.09587067    -0.04900
C638        C  0.82586656  0.47256073  0.11637595     0.07300
C639        C  0.83535159  0.49334187  0.12568348     0.01100
H640        H  0.79958237  0.46713935  0.08355132     0.08800
H641        H  0.84787457  0.49556846  0.14224103     0.07900
N642        N  0.77987104  0.54557654  0.03588166    -0.36000
N643        N  0.78002022  0.56835284  0.04010325    -0.28100
C644        C  0.77319364  0.57923342  0.01680590    -0.03400
C645        C  0.76862005  0.56248744  0.99675340     0.05200
C646        C  0.77301120  0.54130853  0.00974149     0.03300
H647        H  0.77296453  0.59800167  0.01427728     0.08400
H648        H  0.77222771  0.52406362  0.00066910     0.07300
N649        N  0.79020796  0.55964804  0.76078174    -0.27100
N650        N  0.80406359  0.57470392  0.74808887    -0.35000
C651        C  0.81498696  0.56374054  0.72708584     0.01200
C652        C  0.80733635  0.54081747  0.72647686     0.07200
C653        C  0.79162091  0.53888081  0.74801882    -0.05900
H654        H  0.82715355  0.57196282  0.71300259     0.07900
H655        H  0.78221404  0.52337851  0.75433208     0.09100
Cu656      Cu  0.80592897  0.60970180  0.75918139     0.44200
Cu657      Cu  0.77137134  0.56715682  0.79622053     0.42000
Cu658      Cu  0.76561922  0.62758322  0.81347992     0.43900
N659        N  0.80029265  0.64410827  0.77105412    -0.34500
N660        N  0.78452337  0.65064975  0.78946379    -0.28800
C661        C  0.78465830  0.67407154  0.79151787    -0.04900
C662        C  0.80150271  0.68261332  0.77379169     0.07300
C663        C  0.81109900  0.66320690  0.76116884     0.01100
H664        H  0.77377784  0.68404651  0.80546655     0.08800
H665        H  0.82473404  0.66297072  0.74569760     0.07900
N666        N  0.75752187  0.60094696  0.84065254    -0.36000
N667        N  0.75994181  0.57862550  0.83451210    -0.28100
C668        C  0.75819521  0.56596367  0.85787984    -0.03400
C669        C  0.75468512  0.58108474  0.87998275     0.05200
C670        C  0.75416112  0.60313451  0.86804057     0.03300
H671        H  0.76117691  0.54733879  0.85880315     0.08400
H672        H  0.75369966  0.61976024  0.87862515     0.07300
N673        N  0.88359946  0.35322889  0.19674870    -0.27100
N674        N  0.89202447  0.37314444  0.18712820    -0.35000
C675        C  0.91423088  0.37557133  0.19561877     0.01200
C676        C  0.91986674  0.35645511  0.21175597     0.07200
C677        C  0.90006317  0.34267190  0.21214577    -0.05900
H678        H  0.92513442  0.39055565  0.19124107     0.07900
H679        H  0.89780266  0.32616108  0.22273037     0.09100
Cu680      Cu  0.87222137  0.39701447  0.16516030     0.44200
Cu681      Cu  0.85038094  0.34109856  0.18762915     0.42000
Cu682      Cu  0.81469552  0.37801274  0.14356349     0.43900
N683        N  0.84830752  0.41853995  0.14568433    -0.34500
N684        N  0.82764984  0.41142540  0.13688096    -0.28800
C685        C  0.81661903  0.42948091  0.12478616    -0.04900
C686        C  0.83090961  0.44889475  0.12645794     0.07300
C687        C  0.85080178  0.44138920  0.13990599     0.01100
H688        H  0.79925678  0.42866379  0.11606540     0.08800
H689        H  0.86604356  0.45169595  0.14494395     0.07900
N690        N  0.80489415  0.34478748  0.15635567    -0.36000
N691        N  0.81780561  0.33153460  0.17273344    -0.28100
C692        C  0.80636220  0.31149012  0.17783501    -0.03400
C693        C  0.78523596  0.31210862  0.16408874     0.05200
C694        C  0.78486033  0.33350727  0.15062867     0.03300
H695        H  0.81286511  0.29754881  0.19085509     0.08400
H696        H  0.77099832  0.34060818  0.13799034     0.07300
N697        N  0.14613701  0.36125922  0.20617947    -0.27100
N698        N  0.13832423  0.38242493  0.20047296    -0.35000
C699        C  0.11668152  0.38476097  0.21071872     0.01200
C700        C  0.11079738  0.36416922  0.22386078     0.07200
C701        C  0.12986730  0.34966779  0.22079061    -0.05900
H702        H  0.10595247  0.40018225  0.20844726     0.07900
H703        H  0.13132143  0.33165465  0.22736301     0.09100
Cu704      Cu  0.15718650  0.40663833  0.17815012     0.44200
Cu705      Cu  0.17711915  0.34847131  0.19040264     0.42000
Cu706      Cu  0.20828982  0.38587715  0.14145423     0.43900
N707        N  0.17839057  0.42781537  0.15448683    -0.34500
N708        N  0.19654399  0.42031458  0.14015804    -0.28800
C709        C  0.20618636  0.43860610  0.12684430    -0.04900
C710        C  0.19358925  0.45847508  0.13345511     0.07300
C711        C  0.17615588  0.45098546  0.15102153     0.01100
H712        H  0.22155540  0.43760491  0.11392099     0.08800
H713        H  0.16277635  0.46155745  0.16059924     0.07900
N714        N  0.21815914  0.35181851  0.15127454    -0.36000
N715        N  0.20699471  0.33861547  0.16944407    -0.28100
C716        C  0.21848204  0.31834214  0.17254389    -0.03400
C717        C  0.23794597  0.31875043  0.15559975     0.05200
C718        C  0.23709788  0.34016802  0.14230239     0.03300
H719        H  0.21311607  0.30457225  0.18649508     0.08400
H720        H  0.24974116  0.34708336  0.12783056     0.07300
N721        N  0.96179639  0.42034370  0.57834125    -0.27100
N722        N  0.97135730  0.43709026  0.59344353    -0.35000
C723        C  0.95428777  0.44873626  0.60675730     0.01200
C724        C  0.93314159  0.43870146  0.59962389     0.07200
C725        C  0.93860745  0.42079050  0.58167855    -0.05900
H726        H  0.95709489  0.46323831  0.62072377     0.07900
H727        H  0.92661435  0.40898758  0.57150660     0.09100
Cu728      Cu  0.00719807  0.44258031  0.59581085     0.44200
Cu729      Cu  0.97945007  0.39786144  0.55238360     0.42000
Cu730      Cu  0.04029861  0.40193977  0.55226693     0.43900
N731        N  0.04339383  0.43984642  0.59601835    -0.34500
N732        N  0.05486250  0.42460919  0.58059057    -0.28800
C733        C  0.07758576  0.42555220  0.58685881    -0.04900
C734        C  0.08077115  0.44216764  0.60716678     0.07300
C735        C  0.05876850  0.45104927  0.61249082     0.01100
H736        H  0.09074514  0.41448628  0.57764853     0.08800
H737        H  0.05414245  0.46390570  0.62794815     0.07900
N738        N  0.02255625  0.38178826  0.52385736    -0.36000
N739        N  0.99964461  0.38017602  0.52398276    -0.28100
C740        C  0.99269470  0.36798559  0.50170314    -0.03400
C741        C  0.01228711  0.36159164  0.48661911     0.05200
C742        C  0.03094371  0.37064621  0.50151786     0.03300
H743        H  0.97462457  0.36524003  0.49622387     0.08400
H744        H  0.04920425  0.37022820  0.49602638     0.07300
N745        N  0.06122843  0.34261229  0.26291992    -0.27100
N746        N  0.05050179  0.35598218  0.24455266    -0.35000
C747        C  0.06655735  0.36598782  0.22808995     0.01200
C748        C  0.08829118  0.35822746  0.23630512     0.07200
C749        C  0.08432520  0.34337820  0.25831971    -0.05900
H750        H  0.06264825  0.37758548  0.21100788     0.07900
H751        H  0.09727450  0.33433054  0.27059293     0.09100
Cu752      Cu  0.01450631  0.35872996  0.24137410     0.44200
Cu753      Cu  0.04447538  0.32648625  0.29556951     0.42000
Cu754      Cu  0.98200644  0.32931460  0.29493398     0.43900
N755        N  0.97868493  0.35360938  0.23983078    -0.34500
N756        N  0.96708873  0.34153977  0.25869566    -0.28800
C757        C  0.94453930  0.34026008  0.25124716    -0.04900
C758        C  0.94177172  0.35237748  0.22672523     0.07300
C759        C  0.96371380  0.36068960  0.22006870     0.01100
H760        H  0.93103899  0.33182876  0.26329777     0.08800
H761        H  0.96848783  0.37093825  0.20210746     0.07900
N762        N  0.00137223  0.32417736  0.33058758    -0.36000
N763        N  0.02433480  0.32268170  0.33068065    -0.28100
C764        C  0.03203125  0.32376289  0.35691912    -0.03400
C765        C  0.01299148  0.32630581  0.37435778     0.05200
C766        C  0.99381690  0.32626035  0.35680473     0.03300
H767        H  0.05026899  0.32468403  0.36246899     0.08400
H768        H  0.97589273  0.32981323  0.36229487     0.07300
C769        C  0.99228490  0.34211941  0.44647896    -0.13200
C770        C  0.01287542  0.35042225  0.45887185     0.09000
C771        C  0.03384048  0.34890747  0.44391564    -0.13200
C772        C  0.03403875  0.34026747  0.41687754    -0.13200
C773        C  0.01326918  0.33294286  0.40406197     0.09000
C774        C  0.99248243  0.33350275  0.41941776    -0.13200
H775        H  0.97584390  0.34257956  0.45740338     0.12900
H776        H  0.05010503  0.35497642  0.45265790     0.12900
H777        H  0.05042707  0.34014348  0.40583284     0.12900
H778        H  0.97621546  0.32763282  0.41044387     0.12900
C779        C  0.75567388  0.58868313  0.95804696    -0.13200
C780        C  0.76314570  0.56659953  0.96710192     0.09000
C781        C  0.76623387  0.54881729  0.94738475    -0.13200
C782        C  0.76276691  0.55326609  0.91920770    -0.13200
C783        C  0.75610580  0.57561199  0.91003802     0.09000
C784        C  0.75214315  0.59311632  0.92990355    -0.13200
H785        H  0.75271171  0.60269518  0.97264874     0.12900
H786        H  0.77203093  0.53159866  0.95351107     0.12900
H787        H  0.76598633  0.53927815  0.90467974     0.12900
H788        H  0.74661274  0.61042784  0.92381900     0.12900
C789        C  0.26280100  0.60308163  0.96797078    -0.13200
C790        C  0.25659149  0.58071177  0.97743839     0.09000
C791        C  0.25362363  0.56271355  0.95796403    -0.13200
C792        C  0.25558372  0.56724581  0.92966223    -0.13200
C793        C  0.26053067  0.58990247  0.92011273     0.09000
C794        C  0.26476986  0.60762043  0.93961829    -0.13200
H795        H  0.26567526  0.61725365  0.98239289     0.12900
H796        H  0.24879684  0.54526539  0.96435776     0.12900
H797        H  0.25212145  0.55313306  0.91536559     0.12900
H798        H  0.26904779  0.62517380  0.93300745     0.12900
C799        C  0.01592350  0.81828396  0.45766677    -0.13200
C800        C  0.99547564  0.81060741  0.44442122     0.09000
C801        C  0.97413396  0.81285787  0.45849316    -0.13200
C802        C  0.97341170  0.82140297  0.48558289    -0.13200
C803        C  0.99402036  0.82789216  0.49935196     0.09000
C804        C  0.01519780  0.82684698  0.48475017    -0.13200
H805        H  0.03264827  0.81731481  0.44741346     0.12900
H806        H  0.95794786  0.80736454  0.44904073     0.12900
H807        H  0.95672057  0.82204643  0.49593849     0.12900
H808        H  0.03139226  0.83214815  0.49436712     0.12900
C809        C  0.25927675  0.05136113  0.46739782    -0.13200
C810        C  0.25267900  0.07385355  0.47605331     0.09000
C811        C  0.24976580  0.09138678  0.45596934    -0.13200
C812        C  0.25465486  0.08692724  0.42815797    -0.13200
C813        C  0.26244634  0.06479227  0.41973552     0.09000
C814        C  0.26410444  0.04688523  0.43954579    -0.13200
H815        H  0.26171801  0.03737197  0.48216751     0.12900
H816        H  0.24422629  0.10877477  0.46174008     0.12900
H817        H  0.25267079  0.10098928  0.41336051     0.12900
H818        H  0.27004749  0.02962117  0.43382779     0.12900
C819        C  0.25657941  0.30102191  0.15306645    -0.16300
C820        C  0.25793363  0.28249541  0.17014176    -0.31500
H821        H  0.26977543  0.30372564  0.13728920     0.12700
H822        H  0.24503038  0.28014282  0.18632474     0.13300
C823        C  0.26870622  0.79050281  0.22823784    -0.16300
C824        C  0.24897429  0.79140249  0.24316481    -0.31500
H825        H  0.27156840  0.77617331  0.21395509     0.12700
H826        H  0.24614215  0.80557585  0.25769278     0.13300
C827        C  0.47813189  0.32706549  0.90076284    -0.13200
C828        C  0.49897063  0.32788883  0.88544188     0.09000
C829        C  0.51979278  0.32101070  0.89847909    -0.13200
C830        C  0.51960585  0.31244690  0.92558073    -0.13200
C831        C  0.49860229  0.31054748  0.94040876     0.09000
C832        C  0.47794333  0.31845272  0.92787393    -0.13200
H833        H  0.46179721  0.33262471  0.89171980     0.12900
H834        H  0.53623912  0.32142056  0.88757249     0.12900
H835        H  0.53590460  0.30660265  0.93444893     0.12900
H836        H  0.46150199  0.31771510  0.93880883     0.12900
C837        C  0.53144461  0.83505778  0.96367439    -0.13200
C838        C  0.51052569  0.83064096  0.97797416     0.09000
C839        C  0.48932957  0.83372565  0.96383683    -0.13200
C840        C  0.48899639  0.84220954  0.93673372    -0.13200
C841        C  0.50985585  0.84784206  0.92295405     0.09000
C842        C  0.53110885  0.84357232  0.93652790    -0.13200
H843        H  0.54817564  0.83256507  0.97354838     0.12900
H844        H  0.47282864  0.83020370  0.97380646     0.12900
H845        H  0.47223177  0.84490438  0.92703090     0.12900
H846        H  0.54756453  0.84725997  0.92651280     0.12900
C847        C  0.25256879  0.35862109  0.64416923    -0.16300
C848        C  0.25491949  0.37883337  0.65800319    -0.31500
H849        H  0.23704918  0.35526246  0.63192928     0.12700
H850        H  0.27047217  0.38213917  0.67016282     0.13300
C851        C  0.25257013  0.87019285  0.75306217    -0.16300
C852        C  0.23268298  0.86955920  0.73837584    -0.31500
H853        H  0.25738089  0.85557568  0.76619242     0.12700
H854        H  0.22776519  0.88430947  0.72553455     0.13300
C855        C  0.74924682  0.88277849  0.72242513    -0.16300
C856        C  0.74768005  0.86383270  0.73875055    -0.31500
H857        H  0.76443839  0.88538631  0.70942303     0.12700
H858        H  0.73235930  0.86104943  0.75150920     0.13300
C859        C  0.76175641  0.10806778  0.44568577    -0.13200
C860        C  0.76015460  0.09041069  0.46583056     0.09000
C861        C  0.75729766  0.06717023  0.45697488    -0.13200
C862        C  0.75435242  0.06198734  0.42889465    -0.13200
C863        C  0.75424493  0.07990416  0.40897214     0.09000
C864        C  0.75881138  0.10289067  0.41764943    -0.13200
H865        H  0.76457030  0.12608854  0.45149772     0.12900
H866        H  0.75630986  0.05296629  0.47168531     0.12900
H867        H  0.75122736  0.04401877  0.42308401     0.12900
H868        H  0.75952150  0.11712030  0.40293885     0.12900
C869        C  0.74684325  0.29522907  0.15129117    -0.16300
C870        C  0.76709146  0.29379941  0.16522687    -0.31500
H871        H  0.74341766  0.31010055  0.13795268     0.12700
H872        H  0.77061325  0.27876745  0.17826159     0.13300
C873        C  0.75457195  0.80180769  0.23238793    -0.16300
C874        C  0.75343366  0.78049119  0.22087006    -0.31500
H875        H  0.76937423  0.80654146  0.24522691     0.12700
H876        H  0.73867569  0.77583466  0.20793558     0.13300
C877        C  0.73765000  0.37481527  0.64531163    -0.16300
C878        C  0.75809188  0.37511963  0.63178804    -0.31500
H879        H  0.73237800  0.38976720  0.65759287     0.12700
H880        H  0.76320716  0.36037599  0.61905118     0.13300
loop_ 
_geom_bond_atom_site_label_1 
_geom_bond_atom_site_label_2 
_geom_bond_distance 
_geom_bond_site_symmetry_2 
_ccdc_geom_bond_type 
N1            N2   1.321       .  A
N1            C5   1.343       .  A
N1           Cu9   2.063       .  S
N2            C3   1.346       .  A
N2           Cu8   2.071       .  S
C3            C4   1.383       .  A
C3            H6   1.082       .  S
C4            C5   1.380       .  A
C4          C268   1.466       .  S
C5            H7   1.082       .  S
Cu8          N11   2.072       .  S
Cu9          N19   2.063       .  S
Cu10         N12   2.077       .  S
Cu10         N18   2.077       .  S
N11          N12   1.323       .  A
N11          C15   1.344       .  A
N12          C13   1.345       .  A
C13          C14   1.382       .  A
C13          H16   1.082       .  S
C14          C15   1.381       .  A
C14          C86   1.468       .  S
C15          H17   1.082       .  S
N18          N19   1.322       .  A
N18          C22   1.347       .  A
N19          C20   1.342       .  A
C20          C21   1.379       .  A
C20          H23   1.082       .  S
C21          C22   1.387       .  A
C21         C877   1.474       .  S
C22          H24   1.081       .  S
N25          N26   1.322       .  A
N25          C29   1.345       .  A
N25         Cu33   2.074       .  S
N26          C27   1.344       .  A
N26         Cu32   2.064       .  S
C27          C28   1.380       .  A
C27          H30   1.082       .  S
C28          C29   1.382       .  A
C28         C206   1.465       .  S
C29          H31   1.082       .  S
Cu32         N35   2.064       .  S
Cu33         N43   2.074       .  S
Cu34         N36   2.075       .  S
Cu34         N42   2.075       .  S
N35          N36   1.322       .  A
N35          C39   1.344       .  A
N36          C37   1.345       .  A
C37          C38   1.383       .  A
C37          H40   1.082       .  S
C38          C39   1.380       .  A
C38         C110   1.467       .  S
C39          H41   1.082       .  S
N42          N43   1.322       .  A
N42          C46   1.345       .  A
N43          C44   1.344       .  A
C44          C45   1.387       .  A
C44          H47   1.081       .  S
C45          C46   1.382       .  A
C45         C873   1.479       .  S
C46          H48   1.082       .  S
N49          N50   1.322       .  A
N49          C53   1.342       .  A
N49         Cu57   2.068       .  S
N50          C51   1.348       .  A
N50         Cu56   2.082       .  S
C51          C52   1.385       .  A
C51          H54   1.082       .  S
C52          C53   1.380       .  A
C52         C100   1.471       .  S
C53          H55   1.082       .  S
Cu56         N59   2.083       .  S
Cu57         N67   2.068       .  S
Cu58         N60   2.074       .  S
Cu58         N66   2.074       .  S
N59          N60   1.324       .  A
N59          C63   1.347       .  A
N60          C61   1.343       .  A
C61          C62   1.381       .  A
C61          H64   1.082       .  S
C62          C63   1.384       .  A
C62         C244   1.471       .  S
C63          H65   1.082       .  S
N66          N67   1.320       .  A
N66          C70   1.346       .  A
N67          C68   1.344       .  A
C68          C69   1.386       .  A
C68          H71   1.081       .  S
C69          C70   1.384       .  A
C69         C869   1.479       .  S
C70          H72   1.082       .  S
N73          N74   1.322       .  A
N73          C77   1.341       .  A
N73         Cu81   2.066       .  S
N74          C75   1.348       .  A
N74         Cu80   2.074       .  S
C75          C76   1.384       .  A
C75          H78   1.082       .  S
C76          C77   1.381       .  A
C76         C124   1.470       .  S
C77          H79   1.082       .  S
Cu80         N83   2.075       .  S
Cu81         N91   2.065       .  S
Cu82         N84   2.071       .  S
Cu82         N90   2.069       .  S
N83          N84   1.323       .  A
N83          C87   1.344       .  A
N84          C85   1.345       .  A
C85          C86   1.382       .  A
C85          H88   1.082       .  S
C86          C87   1.382       .  A
C87          H89   1.082       .  S
N90          N91   1.319       .  A
N90          C94   1.343       .  A
N91          C92   1.343       .  A
C92          C93   1.389       .  A
C92          H95   1.081       .  S
C93          C94   1.389       .  A
C93         C860   1.487       .  S
C94          H96   1.081       .  S
N97          N98   1.322       .  A
N97         C101   1.343       .  A
N97        Cu105   2.069       .  S
N98          C99   1.348       .  A
N98        Cu104   2.079       .  S
C99         C100   1.385       .  A
C99         H102   1.082       .  S
C100        C101   1.381       .  A
C101        H103   1.082       .  S
Cu104       N107   2.079       .  S
Cu105       N115   2.069       .  S
Cu106       N108   2.070       .  S
Cu106       N114   2.069       .  S
N107        N108   1.324       .  A
N107        C111   1.345       .  A
N108        C109   1.344   1_545  A
C109        C110   1.380       .  A
C109        H112   1.082       .  S
C110        C111   1.382   1_565  A
C111        H113   1.082       .  S
N114        N115   1.320       .  A
N114        C118   1.345       .  A
N115        C116   1.342       .  A
C116        C117   1.388       .  A
C116        H119   1.081       .  S
C117        C118   1.389       .  A
C117        C863   1.486       .  S
C118        H120   1.081       .  S
N121        N122   1.324   1_565  A
N121        C125   1.339   1_565  A
N121       Cu129   2.058       .  S
N122        C123   1.350       .  A
N122       Cu128   2.092   1_545  S
C123        C124   1.387       .  A
C123        H126   1.082       .  S
C124        C125   1.377       .  A
C125        H127   1.082       .  S
Cu128       N131   2.092       .  S
Cu129       N139   2.058       .  S
Cu130       N132   2.059       .  S
Cu130       N138   2.058       .  S
N131        N132   1.323       .  A
N131        C135   1.351       .  A
N132        C133   1.339       .  A
C133        C134   1.377       .  A
C133        H136   1.082       .  S
C134        C135   1.388       .  A
C134        C230   1.471       .  S
C135        H137   1.082       .  S
N138        N139   1.318       .  A
N138        C142   1.344       .  A
N139        C140   1.342       .  A
C140        C141   1.381       .  A
C140        H143   1.082       .  S
C141        C142   1.385       .  A
C141        C855   1.472       .  S
C142        H144   1.081       .  S
N145        N146   1.322       .  A
N145        C149   1.342       .  A
N145       Cu153   2.061       .  S
N146        C147   1.345   1_565  A
N146       Cu152   2.068       .  S
C147        C148   1.382       .  A
C147        H150   1.082       .  S
C148        C149   1.379   1_545  A
C148        C340   1.464       .  S
C149        H151   1.082       .  S
Cu152       N155   2.068       .  S
Cu153       N163   2.061       .  S
Cu154       N156   2.071       .  S
Cu154       N162   2.071       .  S
N155        N156   1.323       .  A
N155        C159   1.346       .  A
N156        C157   1.342       .  A
C157        C158   1.381       .  A
C157        H160   1.082       .  S
C158        C159   1.381       .  A
C158        C220   1.467       .  S
C159        H161   1.082       .  S
N162        N163   1.320       .  A
N162        C166   1.346       .  A
N163        C164   1.342       .  A
C164        C165   1.385       .  A
C164        H167   1.081       .  S
C165        C166   1.384       .  A
C165        C851   1.477       .  S
C166        H168   1.082       .  S
N169        N170   1.321       .  A
N169        C173   1.344       .  A
N169       Cu177   2.065       .  S
N170        C171   1.344       .  A
N170       Cu176   2.063       .  S
C171        C172   1.381       .  A
C171        H174   1.082       .  S
C172        C173   1.381       .  A
C172        C278   1.464       .  S
C173        H175   1.082       .  S
Cu176       N179   2.064       .  S
Cu177       N187   2.065       .  S
Cu178       N180   2.071       .  S
Cu178       N186   2.071       .  S
N179        N180   1.323       .  A
N179        C183   1.343       .  A
N180        C181   1.344       .  A
C181        C182   1.381       .  A
C181        H184   1.082       .  S
C182        C183   1.380       .  A
C182        C350   1.464       .  S
C183        H185   1.082       .  S
N186        N187   1.322       .  A
N186        C190   1.346       .  A
N187        C188   1.341       .  A
C188        C189   1.385       .  A
C188        H191   1.081       .  S
C189        C190   1.383       .  A
C189        C847   1.477       .  S
C190        H192   1.082       .  S
N193        N194   1.323       .  A
N193        C197   1.346       .  A
N193       Cu201   2.073       .  S
N194        C195   1.345       .  A
N194       Cu200   2.076       .  S
C195        C196   1.382       .  A
C195        H198   1.082       .  S
C196        C197   1.382       .  A
C196        C292   1.468       .  S
C197        H199   1.082       .  S
Cu200       N203   2.076       .  S
Cu201       N211   2.073       .  S
Cu202       N204   2.063       .  S
Cu202       N210   2.064       .  S
N203        N204   1.322       .  A
N203        C207   1.345       .  A
N204        C205   1.344       .  A
C205        C206   1.379       .  A
C205        H208   1.082       .  S
C206        C207   1.382       .  A
C207        H209   1.082       .  S
N210        N211   1.320       .  A
N210        C214   1.343       .  A
N211        C212   1.344       .  A
C212        C213   1.390       .  A
C212        H215   1.081       .  S
C213        C214   1.388       .  A
C213        C838   1.487   1_554  S
C214        H216   1.081       .  S
N217        N218   1.322       .  A
N217        C221   1.340       .  A
N217       Cu225   2.054       .  S
N218        C219   1.348       .  A
N218       Cu224   2.082       .  S
C219        C220   1.385       .  A
C219        H222   1.082       .  S
C220        C221   1.377       .  A
C221        H223   1.082       .  S
Cu224       N227   2.082       .  S
Cu225       N235   2.053       .  S
Cu226       N228   2.074       .  S
Cu226       N234   2.073       .  S
N227        N228   1.324       .  A
N227        C231   1.350       .  A
N228        C229   1.340       .  A
C229        C230   1.381       .  A
C229        H232   1.082       .  S
C230        C231   1.385       .  A
C231        H233   1.082       .  S
N234        N235   1.317       .  A
N234        C238   1.345       .  A
N235        C236   1.341       .  A
C236        C237   1.387       .  A
C236        H239   1.081       .  S
C237        C238   1.392       .  A
C237        C841   1.486       .  S
C238        H240   1.081       .  S
N241        N242   1.322       .  A
N241        C245   1.343       .  A
N241       Cu249   2.069       .  S
N242        C243   1.347       .  A
N242       Cu248   2.077       .  S
C243        C244   1.384       .  A
C243        H246   1.082       .  S
C244        C245   1.382       .  A
C245        H247   1.082       .  S
Cu248       N251   2.077       .  S
Cu249       N259   2.069       .  S
Cu250       N252   2.077       .  S
Cu250       N258   2.076       .  S
N251        N252   1.323       .  A
N251        C255   1.346       .  A
N252        C253   1.345       .  A
C253        C254   1.383       .  A
C253        H256   1.082       .  S
C254        C255   1.383       .  A
C254        C326   1.471       .  S
C255        H257   1.082       .  S
N258        N259   1.320       .  A
N258        C262   1.345   1_554  A
N259        C260   1.343   1_554  A
C260        C261   1.387       .  A
C260        H263   1.081       .  S
C261        C262   1.389       .  A
C261        C831   1.486       .  S
C262        H264   1.081       .  S
N265        N266   1.322       .  A
N265        C269   1.344       .  A
N265       Cu273   2.071       .  S
N266        C267   1.345       .  A
N266       Cu272   2.069       .  S
C267        C268   1.381       .  A
C267        H270   1.082       .  S
C268        C269   1.382       .  A
C269        H271   1.082       .  S
Cu272       N275   2.069       .  S
Cu273       N283   2.071       .  S
Cu274       N276   2.067       .  S
Cu274       N282   2.067       .  S
N275        N276   1.322       .  A
N275        C279   1.344       .  A
N276        C277   1.344       .  A
C277        C278   1.381       .  A
C277        H280   1.082       .  S
C278        C279   1.381       .  A
C279        H281   1.082       .  S
N282        N283   1.320       .  A
N282        C286   1.343       .  A
N283        C284   1.344       .  A
C284        C285   1.389       .  A
C284        H287   1.081       .  S
C285        C286   1.388       .  A
C285        C828   1.487       .  S
C286        H288   1.081       .  S
N289        N290   1.321       .  A
N289        C293   1.346       .  A
N289       Cu297   2.070       .  S
N290        C291   1.344       .  A
N290       Cu296   2.069       .  S
C291        C292   1.382       .  A
C291        H294   1.082       .  S
C292        C293   1.383       .  A
C293        H295   1.082       .  S
Cu296       N299   2.069       .  S
Cu297       N307   2.071       .  S
Cu298       N300   2.080       .  S
Cu298       N306   2.080       .  S
N299        N300   1.323       .  A
N299        C303   1.344       .  A
N300        C301   1.346       .  A
C301        C302   1.384       .  A
C301        H304   1.082       .  S
C302        C303   1.380       .  A
C302        C374   1.470       .  S
C303        H305   1.082       .  S
N306        N307   1.323       .  A
N306        C310   1.347       .  A
N307        C308   1.342       .  A
C308        C309   1.379       .  A
C308        H311   1.082       .  S
C309        C310   1.387       .  A
C309        C823   1.475       .  S
C310        H312   1.081       .  S
N313        N314   1.323       .  A
N313        C317   1.343       .  A
N313       Cu321   2.075       .  S
N314        C315   1.349       .  A
N314       Cu320   2.082       .  S
C315        C316   1.385       .  A
C315        H318   1.082       .  S
C316        C317   1.382       .  A
C316        C364   1.473       .  S
C317        H319   1.082       .  S
Cu320       N323   2.082       .  S
Cu321       N331   2.075       .  S
Cu322       N324   2.070       .  S
Cu322       N330   2.070       .  S
N323        N324   1.323       .  A
N323        C327   1.347       .  A
N324        C325   1.344       .  A
C325        C326   1.381       .  A
C325        H328   1.082       .  S
C326        C327   1.384       .  A
C327        H329   1.082       .  S
N330        N331   1.321       .  A
N330        C334   1.346       .  A
N331        C332   1.344       .  A
C332        C333   1.383       .  A
C332        H335   1.082       .  S
C333        C334   1.386       .  A
C333        C820   1.477       .  S
C334        H336   1.081       .  S
N337        N338   1.323       .  A
N337        C341   1.342       .  A
N337       Cu345   2.065       .  S
N338        C339   1.345       .  A
N338       Cu344   2.071       .  S
C339        C340   1.381       .  A
C339        H342   1.082       .  S
C340        C341   1.380       .  A
C341        H343   1.082       .  S
Cu344       N347   2.071       .  S
Cu345       N355   2.064       .  S
Cu346       N348   2.061       .  S
Cu346       N354   2.061       .  S
N347        N348   1.322       .  A
N347        C351   1.345       .  A
N348        C349   1.342       .  A
C349        C350   1.379       .  A
C349        H352   1.082       .  S
C350        C351   1.382       .  A
C351        H353   1.082       .  S
N354        N355   1.319       .  A
N354        C358   1.342       .  A
N355        C356   1.344       .  A
C356        C357   1.388       .  A
C356        H359   1.081       .  S
C357        C358   1.387       .  A
C357        C810   1.483       .  S
C358        H360   1.081       .  S
N361        N362   1.322       .  A
N361        C365   1.342       .  A
N361       Cu369   2.067       .  S
N362        C363   1.349       .  A
N362       Cu368   2.087       .  S
C363        C364   1.387       .  A
C363        H366   1.082       .  S
C364        C365   1.381       .  A
C365        H367   1.082       .  S
Cu368       N371   2.088       .  S
Cu369       N379   2.066       .  S
Cu370       N372   2.068       .  S
Cu370       N378   2.067       .  S
N371        N372   1.324       .  A
N371        C375   1.346   1_545  A
N372        C373   1.345   1_545  A
C373        C374   1.380       .  A
C373        H376   1.082       .  S
C374        C375   1.384       .  A
C375        H377   1.082       .  S
N378        N379   1.320       .  A
N378        C382   1.344       .  A
N379        C380   1.343       .  A
C380        C381   1.386       .  A
C380        H383   1.081       .  S
C381        C382   1.387       .  A
C381        C813   1.481       .  S
C382        H384   1.081       .  S
N385        N386   1.320       .  A
N385        C389   1.344       .  A
N385       Cu393   2.060       .  S
N386        C387   1.343       .  A
N386       Cu392   2.063       .  S
C387        C388   1.382       .  A
C387        H390   1.082       .  S
C388        C389   1.381       .  A
C388        C460   1.464       .  S
C389        H391   1.082       .  S
Cu392       N395   2.064       .  S
Cu393       N403   2.061       .  S
Cu394       N396   2.076       .  S
Cu394       N402   2.076       .  S
N395        N396   1.323       .  A
N395        C399   1.342       .  A
N396        C397   1.346       .  A
C397        C398   1.383       .  A
C397        H400   1.082       .  S
C398        C399   1.379       .  A
C398        C662   1.466       .  S
C399        H401   1.082       .  S
N402        N403   1.322       .  A
N402        C406   1.346       .  A
N403        C404   1.341       .  A
C404        C405   1.383       .  A
C404        H407   1.081       .  S
C405        C406   1.384       .  A
C405        C856   1.475       .  S
C406        H408   1.082       .  S
N409        N410   1.322       .  A
N409        C413   1.342       .  A
N409       Cu417   2.067       .  S
N410        C411   1.349       .  A
N410       Cu416   2.084       .  S
C411        C412   1.386       .  A
C411        H414   1.082       .  S
C412        C413   1.380       .  A
C412        C580   1.471       .  S
C413        H415   1.082       .  S
Cu416       N419   2.085       .  S
Cu417       N427   2.067       .  S
Cu418       N420   2.070       .  S
Cu418       N426   2.069       .  S
N419        N420   1.324       .  A
N419        C423   1.348       .  A
N420        C421   1.343       .  A
C421        C422   1.380       .  A
C421        H424   1.082       .  S
C422        C423   1.384       .  A
C422        C484   1.470       .  S
C423        H425   1.082       .  S
N426        N427   1.320       .  A
N426        C430   1.346       .  A
N427        C428   1.343       .  A
C428        C429   1.387       .  A
C428        H431   1.081       .  S
C429        C430   1.384       .  A
C429        C824   1.479       .  S
C430        H432   1.082       .  S
N433        N434   1.322       .  A
N433        C437   1.342       .  A
N433       Cu441   2.064       .  S
N434        C435   1.348       .  A
N434       Cu440   2.081       .  S
C435        C436   1.385       .  A
C435        H438   1.082       .  S
C436        C437   1.380       .  A
C436        C628   1.469       .  S
C437        H439   1.082       .  S
Cu440       N443   2.082       .  S
Cu441       N451   2.063       .  S
Cu442       N444   2.076       .  S
Cu442       N450   2.075       .  S
N443        N444   1.324       .  A
N443        C447   1.347       .  A
N444        C445   1.343       .  A
C445        C446   1.381       .  A
C445        H448   1.082       .  S
C446        C447   1.383       .  A
C446        C494   1.470       .  S
C447        H449   1.082       .  S
N450        N451   1.320       .  A
N450        C454   1.347       .  A
N451        C452   1.343       .  A
C452        C453   1.380       .  A
C452        H455   1.082       .  S
C453        C454   1.388       .  A
C453        C874   1.476       .  S
C454        H456   1.081       .  S
N457        N458   1.323       .  A
N457        C461   1.345       .  A
N457       Cu465   2.072       .  S
N458        C459   1.343       .  A
N458       Cu464   2.068       .  S
C459        C460   1.379       .  A
C459        H462   1.082       .  S
C460        C461   1.382       .  A
C461        H463   1.082       .  S
Cu464       N467   2.067   1_655  S
Cu465       N475   2.071       .  S
Cu466       N468   2.065       .  S
Cu466       N474   2.065       .  S
N467        N468   1.321       .  A
N467        C471   1.346       .  A
N468        C469   1.342       .  A
C469        C470   1.380       .  A
C469        H472   1.082       .  S
C470        C471   1.382       .  A
C470        C508   1.465       .  S
C471        H473   1.082       .  S
N474        N475   1.320   1_455  A
N474        C478   1.342       .  A
N475        C476   1.344       .  A
C476        C477   1.390       .  A
C476        H479   1.081       .  S
C477        C478   1.387   1_655  A
C477        C803   1.486       .  S
C478        H480   1.081       .  S
N481        N482   1.323       .  A
N481        C485   1.343       .  A
N481       Cu489   2.071       .  S
N482        C483   1.347       .  A
N482       Cu488   2.080       .  S
C483        C484   1.384       .  A
C483        H486   1.082       .  S
C484        C485   1.381       .  A
C485        H487   1.082       .  S
Cu488       N491   2.080   1_455  S
Cu489       N499   2.071       .  S
Cu490       N492   2.070       .  S
Cu490       N498   2.069       .  S
N491        N492   1.323       .  A
N491        C495   1.347       .  A
N492        C493   1.343       .  A
C493        C494   1.381       .  A
C493        H496   1.082       .  S
C494        C495   1.384       .  A
C495        H497   1.082       .  S
N498        N499   1.319   1_655  A
N498        C502   1.344       .  A
N499        C500   1.344       .  A
C500        C501   1.389   1_455  A
C500        H503   1.081       .  S
C501        C502   1.389       .  A
C501        C800   1.487       .  S
C502        H504   1.081       .  S
N505        N506   1.322       .  A
N505        C509   1.342       .  A
N505       Cu513   2.064       .  S
N506        C507   1.346       .  A
N506       Cu512   2.070       .  S
C507        C508   1.382       .  A
C507        H510   1.082       .  S
C508        C509   1.380       .  A
C509        H511   1.082       .  S
Cu512       N515   2.071       .  S
Cu513       N523   2.065       .  S
Cu514       N516   2.074       .  S
Cu514       N522   2.073       .  S
N515        N516   1.323       .  A
N515        C519   1.344       .  A
N516        C517   1.345       .  A
C517        C518   1.382       .  A
C517        H520   1.082       .  S
C518        C519   1.381       .  A
C518        C614   1.467       .  S
C519        H521   1.082       .  S
N522        N523   1.321       .  A
N522        C526   1.346       .  A
N523        C524   1.343       .  A
C524        C525   1.380       .  A
C524        H527   1.082       .  S
C525        C526   1.386       .  A
C525        C852   1.474       .  S
C526        H528   1.081       .  S
N529        N530   1.323       .  A
N529        C533   1.342       .  A
N529       Cu537   2.064       .  S
N530        C531   1.347       .  A
N530       Cu536   2.082       .  S
C531        C532   1.384       .  A
C531        H534   1.082       .  S
C532        C533   1.379       .  A
C532        C604   1.469       .  S
C533        H535   1.082       .  S
Cu536       N539   2.081       .  S
Cu537       N547   2.063       .  S
Cu538       N540   2.063       .  S
Cu538       N546   2.062       .  S
N539        N540   1.323       .  A
N539        C543   1.349       .  A
N540        C541   1.339       .  A
C541        C542   1.379       .  A
C541        H544   1.082       .  S
C542        C543   1.385       .  A
C542        C734   1.468       .  S
C543        H545   1.082       .  S
N546        N547   1.319       .  A
N546        C550   1.346       .  A
N547        C548   1.342       .  A
C548        C549   1.381       .  A
C548        H551   1.082       .  S
C549        C550   1.386       .  A
C549        C848   1.472       .  S
C550        H552   1.081       .  S
N553        N554   1.323       .  A
N553        C557   1.341       .  A
N553       Cu561   2.064       .  S
N554        C555   1.349       .  A
N554       Cu560   2.084       .  S
C555        C556   1.386       .  A
C555        H558   1.082       .  S
C556        C557   1.379       .  A
C556        C652   1.469       .  S
C557        H559   1.082       .  S
Cu560       N563   2.084       .  S
Cu561       N571   2.064       .  S
Cu562       N564   2.066       .  S
Cu562       N570   2.065       .  S
N563        N564   1.324       .  A
N563        C567   1.349       .  A
N564        C565   1.340       .  A
C565        C566   1.379       .  A
C565        H568   1.082       .  S
C566        C567   1.385       .  A
C566        C724   1.469       .  S
C567        H569   1.082       .  S
N570        N571   1.319       .  A
N570        C574   1.345       .  A
N571        C572   1.343       .  A
C572        C573   1.387       .  A
C572        H575   1.081       .  S
C573        C574   1.383       .  A
C573        C878   1.477       .  S
C574        H576   1.082       .  S
N577        N578   1.323       .  A
N577        C581   1.343       .  A
N577       Cu585   2.073       .  S
N578        C579   1.348       .  A
N578       Cu584   2.082       .  S
C579        C580   1.384       .  A
C579        H582   1.082       .  S
C580        C581   1.382       .  A
C581        H583   1.082       .  S
Cu584       N587   2.083       .  S
Cu585       N595   2.072       .  S
Cu586       N588   2.063       .  S
Cu586       N594   2.063       .  S
N587        N588   1.322       .  A
N587        C591   1.345       .  A
N588        C589   1.344       .  A
C589        C590   1.380       .  A
C589        H592   1.082       .  S
C590        C591   1.385       .  A
C590        C710   1.470       .  S
C591        H593   1.082       .  S
N594        N595   1.320       .  A
N594        C598   1.342       .  A
N595        C596   1.345       .  A
C596        C597   1.388       .  A
C596        H599   1.081       .  S
C597        C598   1.386       .  A
C597        C790   1.483   1_554  S
C598        H600   1.081       .  S
N601        N602   1.322       .  A
N601        C605   1.343       .  A
N601       Cu609   2.069       .  S
N602        C603   1.346       .  A
N602       Cu608   2.074       .  S
C603        C604   1.383       .  A
C603        H606   1.082       .  S
C604        C605   1.382       .  A
C605        H607   1.082       .  S
Cu608       N611   2.075       .  S
Cu609       N619   2.068       .  S
Cu610       N612   2.066       .  S
Cu610       N618   2.065       .  S
N611        N612   1.323       .  A
N611        C615   1.345       .  A
N612        C613   1.344       .  A
C613        C614   1.381       .  A
C613        H616   1.082       .  S
C614        C615   1.382       .  A
C615        H617   1.082       .  S
N618        N619   1.320       .  A
N618        C622   1.343       .  A
N619        C620   1.343       .  A
C620        C621   1.388       .  A
C620        H623   1.081       .  S
C621        C622   1.387       .  A
C621        C793   1.483       .  S
C622        H624   1.081       .  S
N625        N626   1.323       .  A
N625        C629   1.343       .  A
N625       Cu633   2.070       .  S
N626        C627   1.347       .  A
N626       Cu632   2.078       .  S
C627        C628   1.383       .  A
C627        H630   1.082       .  S
C628        C629   1.381       .  A
C629        H631   1.082       .  S
Cu632       N635   2.078       .  S
Cu633       N643   2.070       .  S
Cu634       N636   2.070       .  S
Cu634       N642   2.069       .  S
N635        N636   1.323       .  A
N635        C639   1.346       .  A
N636        C637   1.344       .  A
C637        C638   1.381       .  A
C637        H640   1.082       .  S
C638        C639   1.383       .  A
C638        C686   1.468       .  S
C639        H641   1.082       .  S
N642        N643   1.320       .  A
N642        C646   1.344       .  A
N643        C644   1.344       .  A
C644        C645   1.388   1_554  A
C644        H647   1.081       .  S
C645        C646   1.388   1_556  A
C645        C780   1.484       .  S
C646        H648   1.081       .  S
N649        N650   1.322       .  A
N649        C653   1.342       .  A
N649       Cu657   2.070       .  S
N650        C651   1.348       .  A
N650       Cu656   2.077       .  S
C651        C652   1.384       .  A
C651        H654   1.082       .  S
C652        C653   1.381       .  A
C653        H655   1.082       .  S
Cu656       N659   2.077       .  S
Cu657       N667   2.069       .  S
Cu658       N660   2.064       .  S
Cu658       N666   2.064       .  S
N659        N660   1.323       .  A
N659        C663   1.344       .  A
N660        C661   1.345       .  A
C661        C662   1.380       .  A
C661        H664   1.082       .  S
C662        C663   1.382       .  A
C663        H665   1.082       .  S
N666        N667   1.319       .  A
N666        C670   1.342       .  A
N667        C668   1.344       .  A
C668        C669   1.389       .  A
C668        H671   1.081       .  S
C669        C670   1.388       .  A
C669        C783   1.487       .  S
C670        H672   1.081       .  S
N673        N674   1.322       .  A
N673        C677   1.345       .  A
N673       Cu681   2.074       .  S
N674        C675   1.345       .  A
N674       Cu680   2.069       .  S
C675        C676   1.381       .  A
C675        H678   1.082       .  S
C676        C677   1.383       .  A
C676        C758   1.468       .  S
C677        H679   1.082       .  S
Cu680       N683   2.070       .  S
Cu681       N691   2.075       .  S
Cu682       N684   2.076       .  S
Cu682       N690   2.077       .  S
N683        N684   1.323       .  A
N683        C687   1.345       .  A
N684        C685   1.345       .  A
C685        C686   1.383       .  A
C685        H688   1.082       .  S
C686        C687   1.381       .  A
C687        H689   1.082       .  S
N690        N691   1.322       .  A
N690        C694   1.346       .  A
N691        C692   1.344       .  A
C692        C693   1.382       .  A
C692        H695   1.082       .  S
C693        C694   1.386       .  A
C693        C870   1.477       .  S
C694        H696   1.081       .  S
N697        N698   1.321       .  A
N697        C701   1.345       .  A
N697       Cu705   2.068       .  S
N698        C699   1.343       .  A
N698       Cu704   2.062       .  S
C699        C700   1.380       .  A
C699        H702   1.082       .  S
C700        C701   1.382       .  A
C700        C748   1.464       .  S
C701        H703   1.082       .  S
Cu704       N707   2.062       .  S
Cu705       N715   2.069       .  S
Cu706       N708   2.085       .  S
Cu706       N714   2.085       .  S
N707        N708   1.323       .  A
N707        C711   1.343       .  A
N708        C709   1.347       .  A
C709        C710   1.386       .  A
C709        H712   1.082       .  S
C710        C711   1.379       .  A
C711        H713   1.082       .  S
N714        N715   1.323       .  A
N714        C718   1.347       .  A
N715        C716   1.343       .  A
C716        C717   1.385       .  A
C716        H719   1.081       .  S
C717        C718   1.384       .  A
C717        C819   1.480       .  S
C718        H720   1.082       .  S
N721        N722   1.323       .  A
N721        C725   1.340       .  A
N721       Cu729   2.064       .  S
N722        C723   1.349       .  A
N722       Cu728   2.082   1_655  S
C723        C724   1.385       .  A
C723        H726   1.082       .  S
C724        C725   1.379       .  A
C725        H727   1.082       .  S
Cu728       N731   2.082       .  S
Cu729       N739   2.062       .  S
Cu730       N732   2.062       .  S
Cu730       N738   2.061       .  S
N731        N732   1.323       .  A
N731        C735   1.349       .  A
N732        C733   1.339       .  A
C733        C734   1.379       .  A
C733        H736   1.082       .  S
C734        C735   1.385       .  A
C735        H737   1.082       .  S
N738        N739   1.317   1_455  A
N738        C742   1.343       .  A
N739        C740   1.343       .  A
C740        C741   1.389   1_655  A
C740        H743   1.081       .  S
C741        C742   1.389       .  A
C741        C770   1.485       .  S
C742        H744   1.081       .  S
N745        N746   1.323       .  A
N745        C749   1.344       .  A
N745       Cu753   2.064       .  S
N746        C747   1.344       .  A
N746       Cu752   2.076       .  S
C747        C748   1.382       .  A
C747        H750   1.082       .  S
C748        C749   1.379       .  A
C749        H751   1.082       .  S
Cu752       N755   2.076   1_455  S
Cu753       N763   2.063       .  S
Cu754       N756   2.069       .  S
Cu754       N762   2.069   1_655  S
N755        N756   1.322       .  A
N755        C759   1.346       .  A
N756        C757   1.344       .  A
C757        C758   1.381       .  A
C757        H760   1.082       .  S
C758        C759   1.383       .  A
C759        H761   1.082       .  S
N762        N763   1.320       .  A
N762        C766   1.344   1_455  A
N763        C764   1.343       .  A
C764        C765   1.387       .  A
C764        H767   1.081       .  S
C765        C766   1.388   1_455  A
C765        C773   1.484       .  S
C766        H768   1.081       .  S
C769        C770   1.406   1_655  A
C769        C774   1.397       .  A
C769        H775   1.081       .  S
C770        C771   1.406       .  A
C771        C772   1.396       .  A
C771        H776   1.081       .  S
C772        C773   1.406       .  A
C772        H777   1.081       .  S
C773        C774   1.405   1_455  A
C774        H778   1.082       .  S
C779        C780   1.405       .  A
C779        C784   1.397       .  A
C779        H785   1.082       .  S
C780        C781   1.406       .  A
C781        C782   1.398       .  A
C781        H786   1.081       .  S
C782        C783   1.406       .  A
C782        H787   1.081       .  S
C783        C784   1.406       .  A
C784        H788   1.081       .  S
C789        C790   1.405       .  A
C789        C794   1.398       .  A
C789        H795   1.082       .  S
C790        C791   1.406       .  A
C791        C792   1.395       .  A
C791        H796   1.081       .  S
C792        C793   1.405       .  A
C792        H797   1.081       .  S
C793        C794   1.406       .  A
C794        H798   1.082       .  S
C799        C800   1.406   1_455  A
C799        C804   1.398       .  A
C799        H805   1.081       .  S
C800        C801   1.406       .  A
C801        C802   1.397       .  A
C801        H806   1.081       .  S
C802        C803   1.406       .  A
C802        H807   1.081       .  S
C803        C804   1.406   1_655  A
C804        H808   1.082       .  S
C809        C810   1.406       .  A
C809        C814   1.397       .  A
C809        H815   1.081       .  S
C810        C811   1.405       .  A
C811        C812   1.396       .  A
C811        H816   1.082       .  S
C812        C813   1.404       .  A
C812        H817   1.082       .  S
C813        C814   1.405       .  A
C814        H818   1.082       .  S
C819        C820   1.345       .  D
C819        H821   1.085       .  S
C820        H822   1.085       .  S
C823        C824   1.343       .  D
C823        H825   1.085       .  S
C824        H826   1.085       .  S
C827        C828   1.407       .  A
C827        C832   1.399       .  A
C827        H833   1.081       .  S
C828        C829   1.406       .  A
C829        C830   1.397       .  A
C829        H834   1.081       .  S
C830        C831   1.406       .  A
C830        H835   1.081       .  S
C831        C832   1.405       .  A
C832        H836   1.082       .  S
C837        C838   1.407       .  A
C837        C842   1.398       .  A
C837        H843   1.081       .  S
C838        C839   1.405       .  A
C839        C840   1.396       .  A
C839        H844   1.081       .  S
C840        C841   1.406       .  A
C840        H845   1.080       .  S
C841        C842   1.405       .  A
C842        H846   1.081       .  S
C847        C848   1.343       .  D
C847        H849   1.085       .  S
C848        H850   1.084       .  S
C851        C852   1.343       .  D
C851        H853   1.085       .  S
C852        H854   1.085       .  S
C855        C856   1.343       .  D
C855        H857   1.084       .  S
C856        H858   1.085       .  S
C859        C860   1.405       .  A
C859        C864   1.396       .  A
C859        H865   1.081       .  S
C860        C861   1.407       .  A
C861        C862   1.398       .  A
C861        H866   1.081       .  S
C862        C863   1.406       .  A
C862        H867   1.081       .  S
C863        C864   1.406       .  A
C864        H868   1.081       .  S
C869        C870   1.344       .  D
C869        H871   1.085       .  S
C870        H872   1.085       .  S
C873        C874   1.343       .  D
C873        H875   1.085       .  S
C874        H876   1.085       .  S
C877        C878   1.342       .  D
C877        H879   1.085       .  S
C878        H880   1.085       .  S
