geometry optimzed in LAMMPS
_audit_creation_date              2020-11-30 
_audit_creation_method            'lammps2cif' 
_symmetry_space_group_name_H-M    'P1' 
_symmetry_Int_Tables_number       1 
_symmetry_cell_setting            triclinic 
loop_ 
_symmetry_equiv_pos_as_xyz 
  x,y,z 
_cell_length_a                    48.97124601 
_cell_length_b                    24.915425785738915 
_cell_length_c                    37.37205484557577 
_cell_angle_alpha                 90.06946366872654 
_cell_angle_beta                  89.73409348219225 
_cell_angle_gamma                 90.08360596374168 
loop_ 
_atom_site_label 
_atom_site_type_symbol 
_atom_site_fract_x 
_atom_site_fract_y 
_atom_site_fract_z 
_atom_site_charge 
C1          C  0.36367059  0.74745344  0.99836798     0.04700
C2          C  0.35435359  0.72517994  0.46546852    -0.11500
C3          C  0.33240276  0.68904268  0.46527856     0.02200
C4          C  0.32144064  0.67109676  0.49774069    -0.10000
C5          C  0.33090126  0.69188866  0.03069093     0.04700
C6          C  0.35161454  0.73044295  0.03064956    -0.09400
H7          H  0.36292061  0.73851821  0.44023784     0.10300
H8          H  0.30459464  0.64278491  0.49764086     0.07800
H9          H  0.35707763  0.74941899  0.05571114     0.07600
C10         C  0.12396667  0.86396173  0.99789011     0.04700
C11         C  0.13718751  0.84951887  0.46596466    -0.11500
C12         C  0.15712914  0.80912303  0.46596793     0.02200
C13         C  0.16604728  0.78820736  0.49864694    -0.10000
C14         C  0.15251942  0.80015768  0.03039721     0.04700
C15         C  0.13080316  0.83644629  0.02957022    -0.09400
H16         H  0.13181783  0.86773404  0.44076078     0.10300
H17         H  0.18228023  0.75866226  0.49868905     0.07800
H18         H  0.11851050  0.84117140  0.05348836     0.07600
C19         C  0.30700338  0.26526763  0.99825239     0.04700
C20         C  0.29321641  0.27950993  0.46643469    -0.11500
C21         C  0.27537493  0.32366845  0.46594502     0.02200
C22         C  0.26931313  0.35003965  0.49813771    -0.10000
C23         C  0.28115307  0.33457103  0.03021211     0.04700
C24         C  0.30090499  0.29395983  0.02988685    -0.09400
H25         H  0.29628576  0.25702552  0.44199845     0.10300
H26         H  0.25569283  0.38427972  0.49823299     0.07800
H27         H  0.31144314  0.28514732  0.05452293     0.07600
N28         N  0.47569446  0.98031700  0.01121468    -0.35100
N29         N  0.42331349  0.03729114  0.00947719    -0.55600
N30         N  0.45210098  0.13938956  0.00968590    -0.35100
N31         N  0.00438077  0.08177632  0.00955667    -0.55600
C32         C  0.45845519  0.93857898  0.00579144     0.28500
C33         C  0.50135326  0.96270167  0.00417866     0.28500
C34         C  0.42642972  0.15703146  0.00314672     0.28500
C35         C  0.46938777  0.18096458  0.00371027     0.28500
C36         C  0.41390660  0.98667720  0.01384071     0.37100
C37         C  0.40133453  0.07009395  0.01129036     0.37100
C38         C  0.02630141  0.04921584  0.01238822     0.37100
C39         C  0.01372690  0.13241837  0.01354400     0.37100
C40         C  0.47336658  0.89358086  0.99611091    -0.20300
C41         C  0.50030119  0.90843639  0.99566362    -0.20300
C42         C  0.42755520  0.21113575  0.99422282    -0.20300
C43         C  0.45453392  0.22585174  0.99402402    -0.20300
C44         C  0.38580172  0.98745446  0.01871836    -0.21400
C45         C  0.37781298  0.03995654  0.01638168    -0.21400
C46         C  0.04970733  0.07954824  0.01782091    -0.21400
C47         C  0.04165865  0.13194530  0.01944203    -0.21400
C48         C  0.42965380  0.93930657  0.00970408    -0.16800
C49         C  0.02580946  0.99293673  0.00746633    -0.16800
C50         C  0.99820281  0.17945610  0.00804536    -0.16700
C51         C  0.40192328  0.12646102  0.00612403    -0.16700
H52         H  0.46575081  0.85383101  0.99004062     0.16200
H53         H  0.01734928  0.88112230  0.99075443     0.16200
H54         H  0.41082348  0.23801261  0.98862096     0.16200
H55         H  0.46223157  0.26548559  0.98775640     0.16200
H56         H  0.37223126  0.95356867  0.02240881     0.14400
H57         H  0.35693134  0.05388127  0.01773801     0.14400
H58         H  0.07060664  0.06601201  0.01970501     0.14400
H59         H  0.05513115  0.16594795  0.02315229     0.14400
H60         H  0.47040772  0.01713870  0.02206358     0.27700
H61         H  0.45735811  0.10276093  0.02068319     0.27700
C62         C  0.06558715  0.37000260  0.99887936     0.04700
C63         C  0.07436035  0.39156747  0.46658421    -0.11500
C64         C  0.09527974  0.42993877  0.46572520     0.02200
C65         C  0.10654677  0.44839245  0.49779878    -0.10000
C66         C  0.09702915  0.42960772  0.03040612     0.04700
C67         C  0.07719100  0.38895523  0.03084289    -0.09400
H68         H  0.06533437  0.37857464  0.44162278     0.10300
H69         H  0.12303046  0.47747934  0.49709432     0.07800
H70         H  0.07135363  0.37122580  0.05617586     0.07600
O71         O  0.28201247  0.62803817  0.30899294    -0.73700
O72         O  0.25014494  0.59856488  0.34923982    -0.52700
C73         C  0.27294033  0.62105005  0.34102603     0.80000
O74         O  0.17841800  0.69644398  0.18798060    -0.58300
O75         O  0.19493757  0.63467192  0.14864946    -0.51400
C76         C  0.18283541  0.67893613  0.15600878     0.72000
O77         O  0.18288821  0.70184320  0.30895632    -0.72900
O78         O  0.19590719  0.63790151  0.34899454    -0.53500
C79         C  0.18635476  0.68434202  0.34105640     0.78000
O80         O  0.28171533  0.62905704  0.18789557    -0.58100
O81         O  0.24975050  0.59977105  0.14814514    -0.51200
C82         C  0.27240806  0.62269134  0.15595407     0.74600
Zr83       Zr  0.26532742  0.61033150  0.24867328     2.54700
O84         O  0.28133007  0.70283171  0.25049660    -0.78600
O85         O  0.31167326  0.57495917  0.24718841    -0.92000
Zr86       Zr  0.18819880  0.66445022  0.24863743     2.64700
O87         O  0.20508712  0.75635935  0.24539400    -0.97000
O88         O  0.14070654  0.69270171  0.25176942    -0.79100
O89         O  0.22673456  0.63807308  0.28268539    -0.82400
O90         O  0.22702909  0.63835345  0.21480971    -2.17100
O91         O  0.24928724  0.42911292  0.18867467    -0.65800
O92         O  0.23184769  0.48814168  0.14803638    -0.50400
C93         C  0.24455271  0.44506413  0.15654091     0.73000
O94         O  0.14493410  0.48998347  0.30836678    -0.58700
O95         O  0.17393759  0.52709000  0.34922605    -0.50700
C96         C  0.15229527  0.50108364  0.34047836     0.74800
O97         O  0.14505866  0.49268421  0.18816464    -0.70100
O98         O  0.17542254  0.52707323  0.14770882    -0.48800
C99         C  0.15320447  0.50267695  0.15607198     0.76200
O100        O  0.24533082  0.42607805  0.31002934    -0.65400
O101        O  0.22905585  0.48676206  0.35065977    -0.52600
C102        C  0.24030611  0.44189087  0.34222209     0.74500
Zr103      Zr  0.23804966  0.45933864  0.24926812     2.77500
O104        O  0.21985630  0.36833857  0.24778420    -0.96200
O105        O  0.28485895  0.42695649  0.25133988    -0.77000
Zr106      Zr  0.16094269  0.51274279  0.24861802     2.70100
O107        O  0.14077351  0.42341582  0.24769806    -0.78200
O108        O  0.11566645  0.55281429  0.25072629    -0.97300
Zr109      Zr  0.21257788  0.56170187  0.31594412     2.21500
Zr110      Zr  0.21312007  0.56120791  0.18222248     2.11100
O111        O  0.19942461  0.48409374  0.21498098    -2.46000
O112        O  0.19899603  0.48476550  0.28306190    -0.78000
O113        O  0.25233146  0.53417570  0.21465189    -0.70200
O114        O  0.17367706  0.58916753  0.28285656    -2.31200
O115        O  0.25205692  0.53469894  0.28331965    -2.27400
O116        O  0.17382526  0.58895805  0.21446939    -0.72000
H117        H  0.23214564  0.66737526  0.19902575     0.80000
H118        H  0.15886972  0.59949589  0.29857804     0.81100
H119        H  0.19446416  0.45501639  0.19920947     0.83300
H120        H  0.26669902  0.52451640  0.29923599     0.80900
H121        H  0.13104175  0.66809083  0.23528905     0.44000
H122        H  0.11261692  0.56653906  0.22622132     0.42900
H123        H  0.15600583  0.39914786  0.25396611     0.42600
H124        H  0.20894905  0.36654112  0.22557507     0.40500
H125        H  0.29499642  0.45084699  0.23478777     0.43700
H126        H  0.31247640  0.54948911  0.26747049     0.38500
H127        H  0.26492652  0.72452020  0.24516728     0.44600
H128        H  0.21640289  0.75766162  0.22338676     0.41000
H129        H  0.23594919  0.34543890  0.24285225     0.45900
H130        H  0.32329901  0.60548570  0.25467568     0.44600
H131        H  0.18877998  0.77810974  0.23965844     0.44800
H132        H  0.10307706  0.52184853  0.25295025     0.45100
C133        C  0.12024097  0.41105674  0.08881558     0.25100
C134        C  0.10965119  0.44825529  0.06415355    -0.23000
C135        C  0.11178801  0.50349875  0.07156165     0.20000
C136        C  0.12498216  0.52117710  0.10248531     0.25100
C137        C  0.13624698  0.48400969  0.12635264    -0.22900
C138        C  0.13328591  0.42889464  0.11983010     0.20000
F139        F  0.14415694  0.39244388  0.14266719    -0.12900
F140        F  0.11919010  0.35754262  0.08203461    -0.15200
F141        F  0.12662388  0.57458797  0.10935356    -0.15200
F142        F  0.10106036  0.54032094  0.04887255    -0.12900
C143        C  0.13343806  0.42745369  0.37774913     0.25100
C144        C  0.13481885  0.48232205  0.36970994    -0.23000
C145        C  0.12124573  0.51957392  0.39156038     0.20000
C146        C  0.10761599  0.50244198  0.42241767     0.25100
C147        C  0.10708957  0.44769630  0.43135904    -0.22900
C148        C  0.11976310  0.41019621  0.40855499     0.20000
F149        F  0.12031914  0.35732963  0.41730204    -0.12900
F150        F  0.14651674  0.39102170  0.35676221    -0.15200
F151        F  0.09532616  0.53925158  0.44389915    -0.15200
F152        F  0.12134294  0.57248733  0.38298536    -0.12900
C153        C  0.01070690  0.27175459  0.02956400     0.25100
C154        C  0.01347009  0.23075298  0.00406396    -0.23000
C155        C  0.03129927  0.23713616  0.47635438     0.20000
C156        C  0.04837377  0.28180796  0.47457627     0.25100
C157        C  0.04634793  0.32365213  0.99953694    -0.22900
C158        C  0.02644541  0.31846932  0.02681629     0.20000
F159        F  0.52245417  0.35932163  0.05088248    -0.12900
F160        F  0.49272845  0.26752772  0.05687932    -0.15200
F161        F  0.06891341  0.28321619  0.94876157    -0.15200
F162        F  0.03499406  0.19797273  0.95063291    -0.12900
C163        C  0.36875507  0.18101671  0.46890216     0.25100
C164        C  0.37538101  0.15548826  0.00253383    -0.23000
C165        C  0.35768620  0.16103839  0.03194406     0.20000
C166        C  0.33402722  0.19216125  0.02927535     0.25100
C167        C  0.32889033  0.22300970  0.99825319    -0.22900
C168        C  0.34658553  0.21625365  0.46746742     0.20000
F169        F  0.34340128  0.24555542  0.43720391    -0.12900
F170        F  0.38474542  0.17464015  0.43940629    -0.15200
F171        F  0.31632968  0.19214204  0.05733833    -0.15200
F172        F  0.36356645  0.13698962  0.06356557    -0.12900
C173        C  0.29132359  0.38164789  0.08838239     0.25100
C174        C  0.27228322  0.36001417  0.06416281    -0.23000
C175        C  0.24422132  0.36327514  0.07223899     0.20000
C176        C  0.23531672  0.38910950  0.10327004     0.25100
C177        C  0.25427041  0.41187959  0.12680296    -0.22900
C178        C  0.28231345  0.40729539  0.11963170     0.20000
F179        F  0.30083346  0.42985451  0.14204198    -0.12900
F180        F  0.31848392  0.38020310  0.08101340    -0.15200
F181        F  0.20813187  0.39209859  0.11037867    -0.15200
F182        F  0.22538214  0.34138622  0.04999081    -0.12900
C183        C  0.27467288  0.38456717  0.37307204     0.25100
C184        C  0.24824292  0.40620111  0.37178609    -0.23000
C185        C  0.22974995  0.39511369  0.39964989     0.20000
C186        C  0.23789885  0.36455763  0.42908286     0.25100
C187        C  0.26500712  0.34606604  0.43173019    -0.22900
C188        C  0.28309263  0.35519183  0.40290476     0.20000
F189        F  0.30947834  0.33875877  0.40450364    -0.12900
F190        F  0.29291271  0.39473267  0.34644402    -0.15200
F191        F  0.21937174  0.35363599  0.45524014    -0.15200
F192        F  0.20375789  0.41392945  0.39831937    -0.12900
C193        C  0.08175020  0.90662091  0.46924725     0.25100
C194        C  0.10055263  0.90247015  0.99828242    -0.23000
C195        C  0.09474407  0.93276716  0.02943492     0.20000
C196        C  0.07037466  0.96126917  0.03258139     0.25100
C197        C  0.05239844  0.96455696  0.00359473    -0.22900
C198        C  0.05877940  0.93971264  0.47159023     0.20000
F199        F  0.04225092  0.94460187  0.44269224    -0.12900
F200        F  0.08503241  0.87712718  0.43900845    -0.15200
F201        F  0.06427041  0.98568369  0.06412567    -0.15200
F202        F  0.11241756  0.93447370  0.05730461    -0.12900
C203        C  0.16183890  0.71378984  0.06172540     0.25100
C204        C  0.15873812  0.76973568  0.06342828    -0.23000
C205        C  0.16164253  0.79577366  0.09666200     0.20000
C206        C  0.16857691  0.76642962  0.12731211     0.25100
C207        C  0.17336476  0.71074657  0.12494515    -0.22900
C208        C  0.16952285  0.68488029  0.09176176     0.20000
F209        F  0.17285928  0.63104159  0.08814279    -0.12900
F210        F  0.15688967  0.68648402  0.03099347    -0.15200
F211        F  0.17131770  0.79281210  0.15889946    -0.15200
F212        F  0.15850551  0.84977816  0.09927914    -0.12900
C213        C  0.15922919  0.72406774  0.43161717     0.25100
C214        C  0.16416018  0.77964169  0.43268224    -0.23000
C215        C  0.17529448  0.80497950  0.40229505     0.20000
C216        C  0.18197208  0.77459905  0.37169699     0.25100
C217        C  0.17809313  0.71850772  0.37160238    -0.22900
C218        C  0.16671073  0.69381923  0.40197372     0.20000
F219        F  0.16262350  0.63994117  0.40305891    -0.12900
F220        F  0.14673418  0.69875962  0.45937567    -0.15200
F221        F  0.19332607  0.79949310  0.34295200    -0.15200
F222        F  0.18045502  0.85850777  0.40266114    -0.12900
C223        C  0.38007075  0.83547222  0.47391441     0.25100
C224        C  0.38310494  0.79334690  0.99881101    -0.23000
C225        C  0.40264577  0.79828968  0.02628597     0.20000
C226        C  0.41771617  0.84566083  0.03014993     0.25100
C227        C  0.41464490  0.88767604  0.00544873    -0.22900
C228        C  0.39615651  0.88139606  0.47665803     0.20000
F229        F  0.39288548  0.92131264  0.45234721    -0.12900
F230        F  0.36026772  0.83454244  0.44863115    -0.15200
F231        F  0.43492126  0.85090879  0.05833594    -0.15200
F232        F  0.40683655  0.75764123  0.04981404    -0.12900
C233        C  0.27411122  0.66787425  0.09684570     0.25100
C234        C  0.28813385  0.64423842  0.12558350    -0.23000
C235        C  0.31671191  0.63962437  0.12400259     0.20000
C236        C  0.33090311  0.65619954  0.09333438     0.25100
C237        C  0.31663941  0.67784738  0.06417043    -0.22900
C238        C  0.28827933  0.68494648  0.06659453     0.20000
F239        F  0.27428101  0.70857660  0.03956993    -0.12900
F240        F  0.24658737  0.67456728  0.09804014    -0.15200
F241        F  0.35835712  0.64913009  0.09149043    -0.15200
F242        F  0.33067218  0.61665306  0.15127847    -0.12900
C243        C  0.29010038  0.68516513  0.42897753     0.25100
C244        C  0.31825613  0.67510812  0.43173868    -0.23000
C245        C  0.33209348  0.65053515  0.40306295     0.20000
C246        C  0.31759889  0.63373893  0.37276537     0.25100
C247        C  0.28919129  0.64161460  0.37100012    -0.22900
C248        C  0.27572027  0.66840008  0.39900097     0.20000
F249        F  0.24851584  0.67869066  0.39719472    -0.12900
F250        F  0.27645706  0.71144239  0.45541895    -0.15200
F251        F  0.33101300  0.60767386  0.34605132    -0.15200
F252        F  0.35932567  0.64097467  0.40504868    -0.12900
C253        C  0.36378859  0.74697805  0.49798524     0.04700
C254        C  0.35452525  0.72496598  0.96588769    -0.11500
C255        C  0.33275526  0.68834937  0.96572472     0.02200
C256        C  0.32172885  0.67068272  0.99825711    -0.10000
C257        C  0.33086979  0.69159908  0.53022567     0.04700
C258        C  0.35188630  0.72958132  0.53028479    -0.09400
H259        H  0.36316598  0.73808502  0.94065126     0.10300
H260        H  0.30499369  0.64211847  0.99823469     0.07800
H261        H  0.35763530  0.74800093  0.55541918     0.07600
C262        C  0.12326767  0.86326356  0.49793519     0.04700
C263        C  0.13799862  0.85047785  0.96599123    -0.11500
C264        C  0.15774448  0.80976929  0.96598058     0.02200
C265        C  0.16649434  0.78852302  0.99862090    -0.10000
C266        C  0.15220269  0.80014566  0.53051215     0.04700
C267        C  0.13037644  0.83615797  0.52966778    -0.09400
H268        H  0.13276272  0.86902687  0.94083953     0.10300
H269        H  0.18268800  0.75889694  0.99865977     0.07800
H270        H  0.11817451  0.84089923  0.55365996     0.07600
C271        C  0.30732337  0.26535557  0.49789398     0.04700
C272        C  0.29310258  0.27955628  0.96662338    -0.11500
C273        C  0.27530336  0.32385501  0.96593550     0.02200
C274        C  0.26924065  0.35050478  0.99800980    -0.10000
C275        C  0.28136828  0.33404915  0.53024642     0.04700
C276        C  0.30130217  0.29381563  0.52964893    -0.09400
H277        H  0.29628265  0.25703706  0.94222283     0.10300
H278        H  0.25570154  0.38486997  0.99794738     0.07800
H279        H  0.31202242  0.28508412  0.55415775     0.07600
N280        N  0.47562751  0.97978411  0.51163363    -0.35100
N281        N  0.42338573  0.03716750  0.50809061    -0.55600
N282        N  0.45233608  0.13882246  0.50797391    -0.35100
N283        N  0.00370978  0.08212083  0.51047862    -0.55600
C284        C  0.45836528  0.93815212  0.50600529     0.28500
C285        C  0.50130347  0.96189969  0.50506382     0.28500
C286        C  0.42677435  0.15667640  0.50109506     0.28500
C287        C  0.46972271  0.18021313  0.50215951     0.28500
C288        C  0.41390997  0.98676324  0.51319000     0.37100
C289        C  0.40151205  0.07022911  0.51006122     0.37100
C290        C  0.02565629  0.04952609  0.51320167     0.37100
C291        C  0.01301013  0.13282940  0.51453877     0.37100
C292        C  0.47329238  0.89295100  0.49676566    -0.20300
C293        C  0.50025097  0.90757485  0.49678230    -0.20300
C294        C  0.42808164  0.21068535  0.49193133    -0.20300
C295        C  0.45507556  0.22515201  0.49205297    -0.20300
C296        C  0.38587169  0.98791172  0.51860637    -0.21400
C297        C  0.37798250  0.04043490  0.51594350    -0.21400
C298        C  0.04903589  0.07989975  0.51866991    -0.21400
C299        C  0.04095433  0.13232964  0.52038820    -0.21400
C300        C  0.42952951  0.93917871  0.50938886    -0.16800
C301        C  0.02521146  0.99319558  0.50813112    -0.16800
C302        C  0.99746364  0.17994792  0.50898795    -0.16700
C303        C  0.40220944  0.12649138  0.50442522    -0.16700
H304        H  0.46568075  0.85324308  0.49058506     0.16200
H305        H  0.01666862  0.88149515  0.49101353     0.16200
H306        H  0.41147091  0.23776781  0.48617641     0.16200
H307        H  0.46291623  0.26472186  0.48589193     0.16200
H308        H  0.37228485  0.95423149  0.52297221     0.14400
H309        H  0.35715323  0.05456563  0.51765084     0.14400
H310        H  0.06993403  0.06633306  0.52051621     0.14400
H311        H  0.05441645  0.16635069  0.52409214     0.14400
H312        H  0.47030261  0.01677539  0.52220431     0.27700
H313        H  0.45741787  0.10237496  0.51935986     0.27700
C314        C  0.06566040  0.36912119  0.49926059     0.04700
C315        C  0.07418956  0.39263887  0.96622306    -0.11500
C316        C  0.09480868  0.43164338  0.96537847     0.02200
C317        C  0.10583933  0.45059361  0.99751903    -0.10000
C318        C  0.09757536  0.42772029  0.53066319     0.04700
C319        C  0.07750277  0.38757220  0.53118986    -0.09400
H320        H  0.06534807  0.37926404  0.94123983     0.10300
H321        H  0.12216067  0.48002447  0.99682483     0.07800
H322        H  0.07158908  0.37002189  0.55655141     0.07600
O323        O  0.28211192  0.62913853  0.80889735    -0.73700
O324        O  0.25058098  0.59859390  0.84928085    -0.52700
C325        C  0.27320736  0.62165665  0.84100335     0.80000
O326        O  0.17809804  0.69668699  0.68832126    -0.58300
O327        O  0.19428322  0.63481033  0.64880693    -0.51400
C328        C  0.18220055  0.67905257  0.65631379     0.72000
O329        O  0.18298390  0.70184535  0.80913341    -0.72900
O330        O  0.19658556  0.63834849  0.84915851    -0.53500
C331        C  0.18676549  0.68460129  0.84123057     0.78000
O332        O  0.28152399  0.63073778  0.68758843    -0.58100
O333        O  0.24991727  0.59987270  0.64785287    -0.51200
C334        C  0.27234866  0.62360235  0.65565678     0.74600
Zr335      Zr  0.26565939  0.61069553  0.74839989     2.54700
O336        O  0.28373552  0.70178845  0.74956021    -0.78600
O337        O  0.31098573  0.57071496  0.74575048    -0.92000
Zr338      Zr  0.18860538  0.66481897  0.74874760     2.64700
O339        O  0.20631799  0.75612625  0.74519103    -0.97000
O340        O  0.14130062  0.69421907  0.75153180    -0.79100
O341        O  0.22717758  0.63840899  0.78266796    -0.82400
O342        O  0.22724608  0.63859953  0.71463653    -2.17100
O343        O  0.25066858  0.43099063  0.68825729    -0.65800
O344        O  0.23135150  0.48783052  0.64770699    -0.50400
C345        C  0.24499569  0.44584617  0.65616268     0.73000
O346        O  0.14513398  0.49140684  0.80827884    -0.58700
O347        O  0.17425374  0.52800077  0.84922417    -0.50700
C348        C  0.15253460  0.50228792  0.84042077     0.74800
O349        O  0.14506882  0.49365989  0.68812337    -0.70100
O350        O  0.17545298  0.52753882  0.64749396    -0.48800
C351        C  0.15318347  0.50340619  0.65596195     0.76200
O352        O  0.24630591  0.42629904  0.80939994    -0.65400
O353        O  0.22886423  0.48568379  0.85005387    -0.52600
C354        C  0.24058333  0.44126144  0.84157568     0.74500
Zr355      Zr  0.23863719  0.45995208  0.74884054     2.77500
O356        O  0.21921928  0.36995111  0.74711462    -0.96200
O357        O  0.28501154  0.42513382  0.75098511    -0.77000
Zr358      Zr  0.16150392  0.51302396  0.74848948     2.70100
O359        O  0.14380435  0.42177094  0.74853979    -0.78200
O360        O  0.11604413  0.55224631  0.74955272    -0.97300
Zr361      Zr  0.21303119  0.56199306  0.81594057     2.21500
Zr362      Zr  0.21326555  0.56158792  0.68190041     2.11100
O363        O  0.19987690  0.48442519  0.71466826    -2.46000
O364        O  0.19966031  0.48537015  0.78275359    -0.78000
O365        O  0.25264249  0.53484768  0.71413308    -0.70200
O366        O  0.17414467  0.58940587  0.78286257    -2.31200
O367        O  0.25249705  0.53516629  0.78317777    -2.27400
O368        O  0.17427802  0.58936383  0.71455396    -0.72000
H369        H  0.23225357  0.66766563  0.69883473     0.80000
H370        H  0.15931553  0.59969792  0.79855820     0.81100
H371        H  0.19487632  0.45530110  0.69895224     0.83300
H372        H  0.26714358  0.52500780  0.79908896     0.80900
H373        H  0.13137806  0.66848814  0.73611492     0.44000
H374        H  0.11496499  0.57320907  0.72711834     0.42900
H375        H  0.15758325  0.40091264  0.76193496     0.42600
H376        H  0.21311024  0.36494301  0.72211548     0.40500
H377        H  0.29595611  0.45123186  0.73700236     0.43700
H378        H  0.31110592  0.54378900  0.76520451     0.38500
H379        H  0.27487284  0.72011560  0.72919635     0.44600
H380        H  0.21725036  0.75716648  0.72284705     0.41000
H381        H  0.23514120  0.34579909  0.74951699     0.45900
H382        H  0.32339978  0.59943203  0.75415224     0.44600
H383        H  0.19011642  0.77849674  0.74001410     0.44800
H384        H  0.10361249  0.52143642  0.74567324     0.45100
C385        C  0.12088032  0.41027278  0.58908393     0.25100
C386        C  0.10998380  0.44689660  0.56432305    -0.23000
C387        C  0.11172243  0.50225364  0.57138895     0.20000
C388        C  0.12480398  0.52070785  0.60218181     0.25100
C389        C  0.13631357  0.48413976  0.62629179    -0.22900
C390        C  0.13394523  0.42886423  0.61988286     0.20000
F391        F  0.14559689  0.39304489  0.64249036    -0.12900
F392        F  0.12012351  0.35666059  0.58257367    -0.15200
F393        F  0.12625988  0.57426909  0.60850029    -0.15200
F394        F  0.10076658  0.53841533  0.54840375    -0.12900
C395        C  0.13356401  0.42878026  0.87774065     0.25100
C396        C  0.13499118  0.48362266  0.86961803    -0.23000
C397        C  0.12134059  0.52094906  0.89130691     0.20000
C398        C  0.10723584  0.50386735  0.92181930     0.25100
C399        C  0.10673949  0.44919314  0.93097278    -0.22900
C400        C  0.11966173  0.41162456  0.90841969     0.20000
F401        F  0.12019759  0.35879113  0.91726237    -0.12900
F402        F  0.14691009  0.39231405  0.85706133    -0.15200
F403        F  0.09438090  0.54067177  0.94271598    -0.15200
F404        F  0.12193431  0.57394616  0.88300035    -0.12900
C405        C  0.00993405  0.27275104  0.52995071     0.25100
C406        C  0.01270876  0.23125644  0.50476894    -0.23000
C407        C  0.03208258  0.23708973  0.97570320     0.20000
C408        C  0.04894452  0.28212188  0.97406717     0.25100
C409        C  0.04603483  0.32346862  0.49995945    -0.22900
C410        C  0.02605759  0.31898775  0.52720176     0.20000
F411        F  0.52271382  0.35695064  0.55233380    -0.12900
F412        F  0.49335727  0.26466326  0.55755264    -0.15200
F413        F  0.06839463  0.28227863  0.44933405    -0.15200
F414        F  0.03396777  0.19788031  0.45134434    -0.12900
C415        C  0.36850434  0.18032672  0.97011143     0.25100
C416        C  0.37576989  0.15586803  0.50117525    -0.23000
C417        C  0.35831450  0.16142166  0.53082096     0.20000
C418        C  0.33465746  0.19250778  0.52848311     0.25100
C419        C  0.32929658  0.22338612  0.49757061    -0.22900
C420        C  0.34637648  0.21566512  0.96837226     0.20000
F421        F  0.34348451  0.24502338  0.93808637    -0.12900
F422        F  0.38460662  0.17355811  0.94076443    -0.15200
F423        F  0.31714609  0.19231872  0.55674189    -0.15200
F424        F  0.36440166  0.13732429  0.56235519    -0.12900
C425        C  0.29166191  0.38094585  0.58848201     0.25100
C426        C  0.27257595  0.35931470  0.56430422    -0.23000
C427        C  0.24451771  0.36289130  0.57236552     0.20000
C428        C  0.23565784  0.38956942  0.60308847     0.25100
C429        C  0.25465777  0.41251121  0.62647813    -0.22900
C430        C  0.28269233  0.40729403  0.61948532     0.20000
F431        F  0.30124745  0.43016284  0.64170877    -0.12900
F432        F  0.31883774  0.37889894  0.58129278    -0.15200
F433        F  0.20846803  0.39328672  0.61001361    -0.15200
F434        F  0.22563481  0.34054695  0.55038191    -0.12900
C435        C  0.27469336  0.38345896  0.87264974     0.25100
C436        C  0.24828970  0.40521402  0.87112861    -0.23000
C437        C  0.22974541  0.39454679  0.89903823     0.20000
C438        C  0.23784947  0.36448504  0.92874439     0.25100
C439        C  0.26497144  0.34607345  0.93162457    -0.22900
C440        C  0.28312791  0.35500418  0.90287291     0.20000
F441        F  0.30965748  0.33967231  0.90504053    -0.12900
F442        F  0.29295416  0.39283936  0.84592563    -0.15200
F443        F  0.21930149  0.35424261  0.95500395    -0.15200
F444        F  0.20376863  0.41343141  0.89754747    -0.12900
C445        C  0.08249119  0.90668586  0.96899155     0.25100
C446        C  0.09981789  0.90186131  0.49850266    -0.23000
C447        C  0.09410802  0.93210518  0.52973410     0.20000
C448        C  0.06981299  0.96090308  0.53302117     0.25100
C449        C  0.05181970  0.96470956  0.50407872    -0.22900
C450        C  0.05940852  0.93939906  0.97120210     0.20000
F451        F  0.04278424  0.94359108  0.94234336    -0.12900
F452        F  0.08581366  0.87674027  0.93895523    -0.15200
F453        F  0.06383206  0.98517067  0.56465246    -0.15200
F454        F  0.11191468  0.93384330  0.55745546    -0.12900
C455        C  0.16120020  0.71390707  0.56206104     0.25100
C456        C  0.15840734  0.76989884  0.56364102    -0.23000
C457        C  0.16133997  0.79601124  0.59687497     0.20000
C458        C  0.16822347  0.76667873  0.62757177     0.25100
C459        C  0.17254362  0.71083916  0.62534237    -0.22900
C460        C  0.16848895  0.68491897  0.59222789     0.20000
F461        F  0.17151653  0.63100876  0.58871150    -0.12900
F462        F  0.15639608  0.68664978  0.53126887    -0.15200
F463        F  0.17158027  0.79323284  0.65899797    -0.15200
F464        F  0.15830486  0.85004527  0.59944440    -0.12900
C465        C  0.16001689  0.72456886  0.93189885     0.25100
C466        C  0.16467896  0.78024085  0.93272433    -0.23000
C467        C  0.17535209  0.80562194  0.90209310     0.20000
C468        C  0.18199042  0.77512742  0.87153612     0.25100
C469        C  0.17857109  0.71888691  0.87176264    -0.22900
C470        C  0.16751780  0.69422834  0.90233804     0.20000
F471        F  0.16360545  0.64031705  0.90363242    -0.12900
F472        F  0.14766328  0.69925260  0.95975918    -0.15200
F473        F  0.19269348  0.80015924  0.84242640    -0.15200
F474        F  0.17997495  0.85935243  0.90211895    -0.12900
C475        C  0.38045440  0.83544918  0.97391276     0.25100
C476        C  0.38315597  0.79295296  0.49840530    -0.23000
C477        C  0.40296913  0.79765456  0.52553785     0.20000
C478        C  0.41786858  0.84521110  0.52953815     0.25100
C479        C  0.41442260  0.88761827  0.50519889    -0.22900
C480        C  0.39671548  0.88117233  0.97658273     0.20000
F481        F  0.39395809  0.92068777  0.95187387    -0.12900
F482        F  0.36092038  0.83433303  0.94827718    -0.15200
F483        F  0.43529642  0.85024479  0.55750551    -0.15200
F484        F  0.40758295  0.75659338  0.54860273    -0.12900
C485        C  0.27396598  0.66772945  0.59626573     0.25100
C486        C  0.28802273  0.64488956  0.62523881    -0.23000
C487        C  0.31656948  0.63993394  0.62363247     0.20000
C488        C  0.33075399  0.65582573  0.59282125     0.25100
C489        C  0.31653686  0.67755211  0.56364947    -0.22900
C490        C  0.28814513  0.68454206  0.56597587     0.20000
F491        F  0.27409532  0.70759349  0.53877472    -0.12900
F492        F  0.24637924  0.67353287  0.59716676    -0.15200
F493        F  0.35812037  0.64769174  0.59076970    -0.15200
F494        F  0.33046110  0.61684043  0.65092333    -0.12900
C495        C  0.29047046  0.68453061  0.92940569     0.25100
C496        C  0.31860223  0.67424330  0.93215677    -0.23000
C497        C  0.33239260  0.64993506  0.90330920     0.20000
C498        C  0.31789410  0.63404729  0.87276250     0.25100
C499        C  0.28949271  0.64199676  0.87106202    -0.22900
C500        C  0.27604088  0.66812800  0.89936821     0.20000
F501        F  0.24881030  0.67823535  0.89779294    -0.12900
F502        F  0.27691553  0.71092337  0.95587244    -0.15200
F503        F  0.33130055  0.60887162  0.84566265    -0.15200
F504        F  0.35958307  0.63993372  0.90527113    -0.12900
C505        C  0.86400640  0.74640673  0.99810539     0.04700
C506        C  0.85406633  0.72470850  0.46573898    -0.11500
C507        C  0.83246860  0.68774264  0.46557484     0.02200
C508        C  0.82165416  0.66945758  0.49803970    -0.10000
C509        C  0.83044721  0.69269965  0.03048485     0.04700
C510        C  0.85189770  0.72979843  0.03045335    -0.09400
H511        H  0.86247661  0.73843718  0.44050665     0.10300
H512        H  0.80498835  0.64073303  0.49795195     0.07800
H513        H  0.85788379  0.74814329  0.05551908     0.07600
C514        C  0.62419815  0.86459131  0.99780711     0.04700
C515        C  0.63800853  0.84955995  0.46597553    -0.11500
C516        C  0.65823610  0.80976588  0.46611728     0.02200
C517        C  0.66723317  0.78917373  0.49884691    -0.10000
C518        C  0.65302256  0.80164439  0.03074556     0.04700
C519        C  0.63127344  0.83792948  0.02975301    -0.09400
H520        H  0.63249470  0.86748764  0.44073104     0.10300
H521        H  0.68367754  0.76008300  0.49897045     0.07800
H522        H  0.61908456  0.84325621  0.05371428     0.07600
C523        C  0.80728269  0.26563148  0.99792130     0.04700
C524        C  0.79293186  0.27987627  0.46604451    -0.11500
C525        C  0.77542257  0.32460721  0.46548133     0.02200
C526        C  0.76979955  0.35165115  0.49752527    -0.10000
C527        C  0.78148321  0.33460723  0.03022120     0.04700
C528        C  0.80134592  0.29422207  0.02962942    -0.09400
H529        H  0.79588053  0.25721443  0.44164206     0.10300
H530        H  0.75647898  0.38634796  0.49748809     0.07800
H531        H  0.81207827  0.28535507  0.05411890     0.07600
N532        N  0.97569708  0.97973914  0.01142621    -0.35100
N533        N  0.92330618  0.03677252  0.00854488    -0.55600
N534        N  0.95211048  0.13870751  0.00960300    -0.35100
N535        N  0.50436671  0.08250229  0.00872084    -0.55600
C536        C  0.95854449  0.93805296  0.00545112     0.28500
C537        C  0.00143119  0.96213084  0.00491676     0.28500
C538        C  0.92648384  0.15662102  0.00312236     0.28500
C539        C  0.96946311  0.18025810  0.00394693     0.28500
C540        C  0.91391485  0.98611712  0.01283036     0.37100
C541        C  0.90133004  0.06960750  0.01047561     0.37100
C542        C  0.52629000  0.04984911  0.01142003     0.37100
C543        C  0.51370266  0.13316956  0.01289885     0.37100
C544        C  0.97359235  0.89311045  0.99598516    -0.20300
C545        C  0.00051872  0.90792226  0.99628005    -0.20300
C546        C  0.92770226  0.21089482  0.99468367    -0.20300
C547        C  0.95469568  0.22538879  0.99453983    -0.20300
C548        C  0.88581716  0.98689563  0.01774696    -0.21400
C549        C  0.87781834  0.03942756  0.01550838    -0.21400
C550        C  0.54968722  0.08020492  0.01690552    -0.21400
C551        C  0.54163626  0.13261852  0.01873244    -0.21400
C552        C  0.92970719  0.93873482  0.00881397    -0.16800
C553        C  0.52579171  0.99347513  0.00645169    -0.16800
C554        C  0.49814839  0.18032830  0.00767883    -0.16700
C555        C  0.90194722  0.12608257  0.00564370    -0.16700
H556        H  0.96607994  0.85342343  0.98953808     0.16200
H557        H  0.51703684  0.88154686  0.98986746     0.16200
H558        H  0.91103583  0.23805375  0.98936551     0.16200
H559        H  0.96245036  0.26508337  0.98857486     0.16200
H560        H  0.87226343  0.95300515  0.02150921     0.14400
H561        H  0.85694245  0.05334805  0.01699261     0.14400
H562        H  0.57059511  0.06671298  0.01870449     0.14400
H563        H  0.55510783  0.16659005  0.02256835     0.14400
H564        H  0.97026365  0.01648482  0.02225090     0.27700
H565        H  0.95729045  0.10187534  0.02031947     0.27700
C566        C  0.56577177  0.37065040  0.99887444     0.04700
C567        C  0.57407809  0.39358507  0.46654298    -0.11500
C568        C  0.59504113  0.43184257  0.46577899     0.02200
C569        C  0.60620316  0.45032153  0.49790335    -0.10000
C570        C  0.59754098  0.42951839  0.03030885     0.04700
C571        C  0.57765355  0.38900567  0.03078624    -0.09400
H572        H  0.56505198  0.38097505  0.44150955     0.10300
H573        H  0.62269970  0.47938488  0.49727118     0.07800
H574        H  0.57193229  0.37101475  0.05608773     0.07600
O575        O  0.78194657  0.62920266  0.30881371    -0.73700
O576        O  0.75046441  0.59819784  0.34907635    -0.52700
C577        C  0.77307264  0.62138343  0.34087052     0.80000
O578        O  0.67805081  0.69664140  0.18834391    -0.58300
O579        O  0.69474695  0.63515878  0.14892105    -0.51400
C580        C  0.68254802  0.67932195  0.15636521     0.72000
O581        O  0.68241378  0.70120113  0.30920705    -0.72900
O582        O  0.69615680  0.63782506  0.34918871    -0.53500
C583        C  0.68623675  0.68396132  0.34128938     0.78000
O584        O  0.78147576  0.63000759  0.18768586    -0.58100
O585        O  0.74990616  0.59915335  0.14789523    -0.51200
C586        C  0.77235068  0.62281143  0.15574237     0.74600
Zr587      Zr  0.76526081  0.61114087  0.24848333     2.54700
O588        O  0.78045175  0.70415971  0.24995718    -0.78600
O589        O  0.81188657  0.57745251  0.24613791    -0.92000
Zr590      Zr  0.68823668  0.66465594  0.24875297     2.64700
O591        O  0.70628106  0.75570159  0.24582580    -0.97000
O592        O  0.64123171  0.69592561  0.25175278    -0.79100
O593        O  0.72679361  0.63865348  0.28277438    -0.82400
O594        O  0.72692285  0.63866050  0.21459373    -2.17100
O595        O  0.75062678  0.43016330  0.18867648    -0.65800
O596        O  0.73213572  0.48809455  0.14816057    -0.50400
C597        C  0.74547882  0.44572280  0.15659053     0.73000
O598        O  0.64459479  0.49251961  0.30844758    -0.58700
O599        O  0.67403226  0.52841035  0.34928056    -0.50700
C600        C  0.65214099  0.50323442  0.34056945     0.74800
O601        O  0.64520574  0.49290771  0.18809541    -0.70100
O602        O  0.67547763  0.52738800  0.14753972    -0.48800
C603        C  0.65327515  0.50301360  0.15598344     0.76200
O604        O  0.74587970  0.42691441  0.30964832    -0.65400
O605        O  0.72846419  0.48642563  0.35022277    -0.52600
C606        C  0.74019810  0.44208747  0.34176832     0.74500
Zr607      Zr  0.73827540  0.45965070  0.24896761     2.77500
O608        O  0.71871264  0.36965287  0.24752253    -0.96200
O609        O  0.78439228  0.42351356  0.25036213    -0.77000
Zr610      Zr  0.66122914  0.51273343  0.24850639     2.70100
O611        O  0.64304836  0.42182866  0.24904745    -0.78200
O612        O  0.61572410  0.55172381  0.24845113    -0.97300
Zr613      Zr  0.71274516  0.56201728  0.31577222     2.21500
Zr614      Zr  0.71318729  0.56136179  0.18205304     2.11100
O615        O  0.69962177  0.48407975  0.21464654    -2.46000
O616        O  0.69930955  0.48505469  0.28290124    -0.78000
O617        O  0.75241147  0.53477755  0.21456527    -0.70200
O618        O  0.67379310  0.58921775  0.28277224    -2.31200
O619        O  0.75224564  0.53517024  0.28301796    -2.27400
O620        O  0.67403974  0.58905824  0.21454854    -0.72000
H621        H  0.73196496  0.66764954  0.19874495     0.80000
H622        H  0.65896090  0.59950299  0.29846430     0.81100
H623        H  0.69470383  0.45495503  0.19888396     0.83300
H624        H  0.76693839  0.52511073  0.29889016     0.80900
H625        H  0.63109959  0.67138461  0.23572143     0.44000
H626        H  0.61485354  0.57231162  0.22584223     0.42900
H627        H  0.65904799  0.39880363  0.24385914     0.42600
H628        H  0.71403596  0.36325614  0.22212511     0.40500
H629        H  0.79583811  0.45386140  0.25857957     0.43700
H630        H  0.81407641  0.55669956  0.26851363     0.38500
H631        H  0.76376662  0.72531098  0.24522738     0.44600
H632        H  0.71753263  0.75664225  0.22375971     0.41000
H633        H  0.73435103  0.34550788  0.25209810     0.45900
H634        H  0.82342280  0.60971066  0.24954860     0.44600
H635        H  0.69023283  0.77824954  0.24021561     0.44800
H636        H  0.60337596  0.52077592  0.24458899     0.45100
C637        C  0.62100723  0.41105047  0.08851843     0.25100
C638        C  0.61013229  0.44813603  0.06401182    -0.23000
C639        C  0.61177658  0.50335706  0.07159843     0.20000
C640        C  0.62481510  0.52123252  0.10256368     0.25100
C641        C  0.63633034  0.48421029  0.12633444    -0.22900
C642        C  0.63385414  0.42906295  0.11961864     0.20000
F643        F  0.64508500  0.39283200  0.14231296    -0.12900
F644        F  0.62040662  0.35757157  0.08151198    -0.15200
F645        F  0.62617775  0.57467232  0.10944888    -0.15200
F646        F  0.60073900  0.53994742  0.04899642    -0.12900
C647        C  0.63431034  0.42971461  0.37860359     0.25100
C648        C  0.63476402  0.48439763  0.36987709    -0.23000
C649        C  0.62053306  0.52135614  0.39123361     0.20000
C650        C  0.60679969  0.50404090  0.42199354     0.25100
C651        C  0.60697306  0.44949333  0.43144223    -0.22900
C652        C  0.62047104  0.41227216  0.40924450     0.20000
F653        F  0.62155441  0.35957731  0.41835674    -0.12900
F654        F  0.64852553  0.39378424  0.35850919    -0.15200
F655        F  0.59368118  0.54048955  0.44288960    -0.15200
F656        F  0.62028930  0.57420815  0.38247241    -0.12900
C657        C  0.51055221  0.27294625  0.02917517     0.25100
C658        C  0.51338600  0.23179467  0.00373513    -0.23000
C659        C  0.53147795  0.23869777  0.47469492     0.20000
C660        C  0.54824213  0.28384963  0.47334144     0.25100
C661        C  0.54649207  0.32445488  0.99948625    -0.22900
C662        C  0.52648641  0.31946855  0.02661890     0.20000
F663        F  0.02228784  0.35831609  0.05103711    -0.12900
F664        F  0.99319134  0.26588987  0.05757005    -0.15200
F665        F  0.56921680  0.28401462  0.94890735    -0.15200
F666        F  0.53476416  0.19945505  0.95006578    -0.12900
C667        C  0.86804252  0.17975440  0.46945113     0.25100
C668        C  0.87546153  0.15534983  0.00195339    -0.23000
C669        C  0.85755476  0.16042449  0.03118363     0.20000
C670        C  0.83403113  0.19194004  0.02854649     0.25100
C671        C  0.82917100  0.22343391  0.99776048    -0.22900
C672        C  0.84601553  0.21532221  0.46768683     0.20000
F673        F  0.84328001  0.24500275  0.43751205    -0.12900
F674        F  0.88414456  0.17282280  0.44012350    -0.15200
F675        F  0.81614527  0.19166778  0.05640255    -0.15200
F676        F  0.86311597  0.13559645  0.06263596    -0.12900
C677        C  0.79203464  0.38126975  0.08850299     0.25100
C678        C  0.77284409  0.36009902  0.06426891    -0.23000
C679        C  0.74480959  0.36412844  0.07234151     0.20000
C680        C  0.73607808  0.39056637  0.10318373     0.25100
C681        C  0.75515789  0.41262983  0.12680698    -0.22900
C682        C  0.78318215  0.40718163  0.11974786     0.20000
F683        F  0.80183449  0.42938849  0.14212908    -0.12900
F684        F  0.81918982  0.37915706  0.08116211    -0.15200
F685        F  0.70889847  0.39501488  0.10997337    -0.15200
F686        F  0.72580054  0.34239815  0.05027876    -0.12900
C687        C  0.77451566  0.38506467  0.37260181     0.25100
C688        C  0.74804490  0.40638697  0.37125657    -0.23000
C689        C  0.72956554  0.39549338  0.39915564     0.20000
C690        C  0.73780490  0.36540513  0.42874633     0.25100
C691        C  0.76493905  0.34690454  0.43133017    -0.22900
C692        C  0.78302300  0.35616333  0.40255606     0.20000
F693        F  0.80954153  0.34070114  0.40446835    -0.12900
F694        F  0.79272608  0.39526886  0.34594329    -0.15200
F695        F  0.71940147  0.35531839  0.45520199    -0.15200
F696        F  0.70354779  0.41420011  0.39775042    -0.12900
C697        C  0.58220152  0.90521298  0.46893096     0.25100
C698        C  0.60063462  0.90275106  0.99785585    -0.23000
C699        C  0.59502030  0.93416604  0.02851840     0.20000
C700        C  0.57053965  0.96235905  0.03160249     0.25100
C701        C  0.55240150  0.96487517  0.00271191    -0.22900
C702        C  0.55919819  0.93824818  0.47106567     0.20000
F703        F  0.54262890  0.94265319  0.44216761    -0.12900
F704        F  0.58550433  0.87519310  0.43892119    -0.15200
F705        F  0.56454452  0.98737480  0.06296607    -0.15200
F706        F  0.61309845  0.93746611  0.05587513    -0.12900
C707        C  0.66229671  0.71512948  0.06201572     0.25100
C708        C  0.65911626  0.77107673  0.06385360    -0.23000
C709        C  0.66179425  0.79680234  0.09726415     0.20000
C710        C  0.66841138  0.76710121  0.12792436     0.25100
C711        C  0.67318009  0.71141549  0.12538651    -0.22900
C712        C  0.66970839  0.68593418  0.09203119     0.20000
F713        F  0.67330346  0.63219457  0.08814776    -0.12900
F714        F  0.65782520  0.68802733  0.03109568    -0.15200
F715        F  0.67103069  0.79316646  0.15965829    -0.15200
F716        F  0.65891176  0.85084355  0.10003172    -0.12900
C717        C  0.66071444  0.72421505  0.43248222     0.25100
C718        C  0.66519743  0.77995090  0.43297290    -0.23000
C719        C  0.67525096  0.80519830  0.40192271     0.20000
C720        C  0.68132154  0.77455541  0.37124588     0.25100
C721        C  0.67820563  0.71827795  0.37183944    -0.22900
C722        C  0.66783319  0.69369325  0.40284895     0.20000
F723        F  0.66409905  0.63972795  0.40446013    -0.12900
F724        F  0.64871285  0.69905725  0.46064859    -0.15200
F725        F  0.69110361  0.79952104  0.34156190    -0.15200
F726        F  0.67974160  0.85896557  0.40157221    -0.12900
C727        C  0.87927884  0.83569773  0.47445786     0.25100
C728        C  0.88352398  0.79218182  0.99827360    -0.23000
C729        C  0.90353116  0.79693957  0.02516673     0.20000
C730        C  0.91838766  0.84462589  0.02900866     0.25100
C731        C  0.91480925  0.88692370  0.00460946    -0.22900
C732        C  0.89548730  0.88152099  0.47712007     0.20000
F733        F  0.89210029  0.92165135  0.45299184    -0.12900
F734        F  0.85920598  0.83500721  0.44952962    -0.15200
F735        F  0.93595290  0.84987925  0.05681538    -0.15200
F736        F  0.90839839  0.75581614  0.04808861    -0.12900
C737        C  0.77379117  0.66835486  0.09690642     0.25100
C738        C  0.78795675  0.64447618  0.12539576    -0.23000
C739        C  0.81650142  0.63967633  0.12356312     0.20000
C740        C  0.83056219  0.65661248  0.09291187     0.25100
C741        C  0.81620297  0.67865215  0.06397621    -0.22900
C742        C  0.78779641  0.68546954  0.06654462     0.20000
F743        F  0.77357199  0.70872768  0.03957687    -0.12900
F744        F  0.74628426  0.67524813  0.09850646    -0.15200
F745        F  0.85798736  0.64932279  0.09078280    -0.15200
F746        F  0.83054628  0.61617754  0.15055855    -0.12900
C747        C  0.79022358  0.68428555  0.42922063     0.25100
C748        C  0.81831983  0.67374690  0.43207072    -0.23000
C749        C  0.83208968  0.64867755  0.40353963     0.20000
C750        C  0.81764170  0.63265430  0.37301003     0.25100
C751        C  0.78933258  0.64159184  0.37094606    -0.22900
C752        C  0.77587446  0.66816000  0.39906032     0.20000
F753        F  0.74866385  0.67841445  0.39734003    -0.12900
F754        F  0.77657128  0.71007049  0.45587145    -0.15200
F755        F  0.83092613  0.60592552  0.34648009    -0.15200
F756        F  0.85914628  0.63758697  0.40600355    -0.12900
C757        C  0.86332456  0.74677285  0.49825646     0.04700
C758        C  0.85448446  0.72440405  0.96567109    -0.11500
C759        C  0.83217750  0.68906440  0.96556368     0.02200
C760        C  0.82089166  0.67216814  0.99807908    -0.10000
C761        C  0.83091321  0.69032147  0.53050968     0.04700
C762        C  0.85156193  0.72904586  0.53055488    -0.09400
H763        H  0.86323909  0.73716215  0.94041335     0.10300
H764        H  0.80381588  0.64439356  0.99807373     0.07800
H765        H  0.85715828  0.74767442  0.55568337     0.07600
C766        C  0.62393836  0.86300359  0.49784208     0.04700
C767        C  0.63817253  0.85071402  0.96596656    -0.11500
C768        C  0.65811439  0.81040968  0.96615164     0.02200
C769        C  0.66697057  0.78971978  0.99893616    -0.10000
C770        C  0.65308627  0.80038563  0.53058099     0.04700
C771        C  0.63108188  0.83607036  0.52965244    -0.09400
H772        H  0.63272331  0.86867688  0.94070012     0.10300
H773        H  0.68324202  0.76026822  0.99908145     0.07800
H774        H  0.61880492  0.84080798  0.55359045     0.07600
C775        C  0.80691886  0.26545604  0.49757816     0.04700
C776        C  0.79315049  0.27977146  0.96645347    -0.11500
C777        C  0.77516785  0.32384127  0.96599817     0.02200
C778        C  0.76924904  0.35034948  0.99816728    -0.10000
C779        C  0.78170272  0.33544550  0.52968023     0.04700
C780        C  0.80121932  0.29444040  0.52920676    -0.09400
H781        H  0.79637499  0.25737225  0.94200400     0.10300
H782        H  0.75566022  0.38463367  0.99827045     0.07800
H783        H  0.81180685  0.28533508  0.55375227     0.07600
N784        N  0.97510459  0.97989074  0.51242003    -0.35100
N785        N  0.92279764  0.03691607  0.50925634    -0.55600
N786        N  0.95145264  0.13901757  0.51000885    -0.35100
N787        N  0.50448958  0.08171139  0.50865295    -0.55600
C788        C  0.95791823  0.93825471  0.50637690     0.28500
C789        C  0.00081779  0.96236994  0.50564563     0.28500
C790        C  0.92587378  0.15658485  0.50286948     0.28500
C791        C  0.96876914  0.18062553  0.50446186     0.28500
C792        C  0.91343242  0.98640269  0.51423925     0.37100
C793        C  0.90083946  0.06975041  0.51126179     0.37100
C794        C  0.52635893  0.04899816  0.51163097     0.37100
C795        C  0.51391341  0.13240423  0.51226736     0.37100
C796        C  0.97292248  0.89339632  0.49664606    -0.20300
C797        C  0.99986092  0.90822922  0.49679592    -0.20300
C798        C  0.92705798  0.21068181  0.49393474    -0.20300
C799        C  0.95401626  0.22550305  0.49444291    -0.20300
C800        C  0.88540789  0.98728965  0.51977536    -0.21400
C801        C  0.87738689  0.03972592  0.51711016    -0.21400
C802        C  0.54982294  0.07928539  0.51672645    -0.21400
C803        C  0.54187078  0.13183289  0.51792648    -0.21400
C804        C  0.92908657  0.93898179  0.50989622    -0.16800
C805        C  0.52575728  0.99256749  0.50719533    -0.16800
C806        C  0.49836590  0.17951733  0.50689904    -0.16700
C807        C  0.90138538  0.12601057  0.50566781    -0.16700
H808        H  0.96536924  0.85377500  0.49010088     0.16200
H809        H  0.51701054  0.88060278  0.49125877     0.16200
H810        H  0.91037691  0.23750493  0.48796943     0.16200
H811        H  0.96175701  0.26519040  0.48841541     0.16200
H812        H  0.87189913  0.95347336  0.52408299     0.14400
H813        H  0.85652221  0.05365256  0.51879570     0.14400
H814        H  0.57068610  0.06555690  0.51870613     0.14400
H815        H  0.55539955  0.16583300  0.52128238     0.14400
H816        H  0.96971112  0.01657218  0.52341253     0.27700
H817        H  0.95659393  0.10242624  0.52114900     0.27700
C818        C  0.56538766  0.37075325  0.49913698     0.04700
C819        C  0.57411793  0.39370907  0.96625439    -0.11500
C820        C  0.59477718  0.43260846  0.96539062     0.02200
C821        C  0.60615005  0.45092419  0.99746332    -0.10000
C822        C  0.59711762  0.42965117  0.53071830     0.04700
C823        C  0.57710148  0.38934842  0.53113318    -0.09400
H824        H  0.56508611  0.38062564  0.94131487     0.10300
H825        H  0.62250083  0.48029847  0.99674264     0.07800
H826        H  0.57126032  0.37164542  0.55646529     0.07600
O827        O  0.78154967  0.63038820  0.80871241    -0.73700
O828        O  0.75038967  0.59857358  0.84915140    -0.52700
C829        C  0.77281731  0.62233772  0.84081978     0.80000
O830        O  0.67804666  0.69580053  0.68814611    -0.58300
O831        O  0.69502842  0.63459942  0.64872001    -0.51400
C832        C  0.68265845  0.67850759  0.65615951     0.72000
O833        O  0.68214057  0.70131017  0.80916245    -0.72900
O834        O  0.69635376  0.63840765  0.84921023    -0.53500
C835        C  0.68625307  0.68442607  0.84126530     0.78000
O836        O  0.78144544  0.62853917  0.68754612    -0.58100
O837        O  0.74986276  0.59776022  0.64777288    -0.51200
C838        C  0.77237882  0.62115798  0.65560080     0.74600
Zr839      Zr  0.76511958  0.61088633  0.74842378     2.54700
O840        O  0.78190382  0.70289394  0.74791378    -0.78600
O841        O  0.81106569  0.57394125  0.74648125    -0.92000
Zr842      Zr  0.68815316  0.66442905  0.74880668     2.64700
O843        O  0.70664899  0.75519437  0.74699984    -0.97000
O844        O  0.64132064  0.69656621  0.75228980    -0.79100
O845        O  0.72670022  0.63842529  0.78280985    -0.82400
O846        O  0.72678417  0.63843100  0.71453721    -2.17100
O847        O  0.74990123  0.42949928  0.68845355    -0.65800
O848        O  0.73114598  0.48712884  0.64795973    -0.50400
C849        C  0.74452721  0.44477247  0.65634078     0.73000
O850        O  0.64479311  0.49211828  0.80846483    -0.58700
O851        O  0.67384088  0.52906418  0.84937948    -0.50700
C852        C  0.65209187  0.50351742  0.84055558     0.74800
O853        O  0.64510530  0.49292897  0.68815377    -0.70100
O854        O  0.67504291  0.52838406  0.64758207    -0.48800
C855        C  0.65297256  0.50363349  0.65605013     0.76200
O856        O  0.74563407  0.42567486  0.80949449    -0.65400
O857        O  0.72894420  0.48596391  0.85012140    -0.52600
C858        C  0.74031070  0.44117955  0.84166241     0.74500
Zr859      Zr  0.73837343  0.45968151  0.74899882     2.77500
O860        O  0.72114483  0.36792892  0.74802304    -0.96200
O861        O  0.78575397  0.43070919  0.75017726    -0.77000
Zr862      Zr  0.66122164  0.51233767  0.74856997     2.70100
O863        O  0.64340076  0.42110784  0.74823208    -0.78200
O864        O  0.61542086  0.55003423  0.74982247    -0.97300
Zr865      Zr  0.71272719  0.56190651  0.81599065     2.21500
Zr866      Zr  0.71298266  0.56098827  0.68209483     2.11100
O867        O  0.69958620  0.48371807  0.71475559    -2.46000
O868        O  0.69935317  0.48492664  0.78298913    -0.78000
O869        O  0.75223306  0.53471070  0.71445120    -0.70200
O870        O  0.67382583  0.58886801  0.78278132    -2.31200
O871        O  0.75215433  0.53516211  0.78317622    -2.27400
O872        O  0.67384054  0.58880421  0.71463444    -0.72000
H873        H  0.73187221  0.66734297  0.69864671     0.80000
H874        H  0.65898295  0.59915055  0.79845385     0.81100
H875        H  0.69462397  0.45457046  0.69903628     0.83300
H876        H  0.76686570  0.52515501  0.79903158     0.80900
H877        H  0.63013363  0.66360380  0.75444000     0.44000
H878        H  0.61429601  0.57188360  0.72776982     0.42900
H879        H  0.65921118  0.39855185  0.75487906     0.42600
H880        H  0.71122546  0.36472996  0.72509369     0.40500
H881        H  0.79589800  0.46016316  0.73828415     0.43700
H882        H  0.81363224  0.55703864  0.77018524     0.38500
H883        H  0.76547081  0.72507913  0.75227860     0.44600
H884        H  0.72024076  0.75477756  0.72732089     0.41000
H885        H  0.73763309  0.34546942  0.74475228     0.45900
H886        H  0.82317819  0.60578703  0.74679521     0.44600
H887        H  0.69151225  0.77749195  0.73780859     0.44800
H888        H  0.60325938  0.51900939  0.74528525     0.45100
C889        C  0.62029206  0.41156226  0.58910199     0.25100
C890        C  0.60955965  0.44852680  0.56443075    -0.23000
C891        C  0.61150986  0.50383758  0.57165943     0.20000
C892        C  0.62464518  0.52185629  0.60251352     0.25100
C893        C  0.63599721  0.48489219  0.62645407    -0.22900
C894        C  0.63330207  0.42972195  0.62001833     0.20000
F895        F  0.64454143  0.39357319  0.64276190    -0.12900
F896        F  0.61949234  0.35802254  0.58235908    -0.15200
F897        F  0.62625693  0.57534746  0.60913369    -0.15200
F898        F  0.60076869  0.54036610  0.54876393    -0.12900
C899        C  0.63340321  0.43025053  0.87786903     0.25100
C900        C  0.63453694  0.48503223  0.86966035    -0.23000
C901        C  0.62067723  0.52227153  0.89117827     0.20000
C902        C  0.60684912  0.50511400  0.92188307     0.25100
C903        C  0.60650148  0.45039983  0.93098496    -0.22900
C904        C  0.61944451  0.41293793  0.90840011     0.20000
F905        F  0.61997293  0.36005449  0.91709567    -0.12900
F906        F  0.64711342  0.39403311  0.85740081    -0.15200
F907        F  0.59419557  0.54185160  0.94304403    -0.15200
F908        F  0.62083237  0.57517701  0.88254552    -0.12900
C909        C  0.51084153  0.27127204  0.52958204     0.25100
C910        C  0.51346927  0.23105238  0.50349480    -0.23000
C911        C  0.53206152  0.23818784  0.97542615     0.20000
C912        C  0.54909017  0.28300234  0.97400779     0.25100
C913        C  0.54608587  0.32440229  0.49960221    -0.22900
C914        C  0.52656272  0.31811551  0.52729924     0.20000
F915        F  0.02232215  0.35890256  0.55150104    -0.12900
F916        F  0.99204741  0.26786794  0.55763626    -0.15200
F917        F  0.56772736  0.28586399  0.44743566    -0.15200
F918        F  0.53372131  0.20091295  0.44863574    -0.12900
C919        C  0.86895333  0.18124279  0.96973154     0.25100
C920        C  0.87486173  0.15498578  0.50192852    -0.23000
C921        C  0.85719379  0.16079964  0.53133814     0.20000
C922        C  0.83355337  0.19190900  0.52856999     0.25100
C923        C  0.82852927  0.22275650  0.49752659    -0.22900
C924        C  0.84685236  0.21669499  0.96803614     0.20000
F925        F  0.84408163  0.24661379  0.93796539    -0.12900
F926        F  0.88540324  0.17540377  0.94062288    -0.15200
F927        F  0.81583593  0.19213026  0.55661611    -0.15200
F928        F  0.86312711  0.13713780  0.56307448    -0.12900
C929        C  0.79163764  0.38043927  0.58878041     0.25100
C930        C  0.77272365  0.36043202  0.56376147    -0.23000
C931        C  0.74459630  0.36483078  0.57117152     0.20000
C932        C  0.73551977  0.39051430  0.60215657     0.25100
C933        C  0.75434530  0.41178192  0.62648300    -0.22900
C934        C  0.78243929  0.40600738  0.61998566     0.20000
F935        F  0.80087227  0.42784454  0.64282745    -0.12900
F936        F  0.81889564  0.37760129  0.58227169    -0.15200
F937        F  0.70826621  0.39504631  0.60834396    -0.15200
F938        F  0.72582700  0.34416684  0.54830862    -0.12900
C939        C  0.77445188  0.38360073  0.87277449     0.25100
C940        C  0.74805441  0.40532595  0.87124471    -0.23000
C941        C  0.72953707  0.39491811  0.89918909     0.20000
C942        C  0.73766598  0.36518884  0.92903129     0.25100
C943        C  0.76474334  0.34632615  0.93178985    -0.22900
C944        C  0.78286171  0.35507966  0.90296599     0.20000
F945        F  0.80936316  0.33953688  0.90503590    -0.12900
F946        F  0.79271630  0.39297968  0.84605355    -0.15200
F947        F  0.71917286  0.35574940  0.95548783    -0.15200
F948        F  0.70354459  0.41369865  0.89753980    -0.12900
C949        C  0.58236927  0.90581127  0.96871711     0.25100
C950        C  0.60035367  0.90121539  0.49815689    -0.23000
C951        C  0.59469977  0.93203709  0.52910989     0.20000
C952        C  0.57030183  0.96051193  0.53232092     0.25100
C953        C  0.55228202  0.96378837  0.50337808    -0.22900
C954        C  0.55932654  0.93875453  0.97059015     0.20000
F955        F  0.54272243  0.94237612  0.94167619    -0.12900
F956        F  0.58555791  0.87476342  0.93914791    -0.15200
F957        F  0.56426008  0.98506953  0.56383049    -0.15200
F958        F  0.61273342  0.93475143  0.55654174    -0.12900
C959        C  0.66256045  0.71382369  0.56168932     0.25100
C960        C  0.65927650  0.76974775  0.56357031    -0.23000
C961        C  0.66176547  0.79546084  0.59698660     0.20000
C962        C  0.66826300  0.76582721  0.62766441     0.25100
C963        C  0.67322738  0.71027282  0.62512972    -0.22900
C964        C  0.66989598  0.68467034  0.59176338     0.20000
F965        F  0.67346664  0.63089540  0.58797164    -0.12900
F966        F  0.65819632  0.68674678  0.53072899    -0.15200
F967        F  0.67048043  0.79181796  0.65947016    -0.15200
F968        F  0.65874950  0.84945843  0.59976643    -0.12900
C969        C  0.66045080  0.72492372  0.93232737     0.25100
C970        C  0.66505400  0.78061619  0.93294958    -0.23000
C971        C  0.67534835  0.80585020  0.90201502     0.20000
C972        C  0.68174371  0.77516509  0.87143112     0.25100
C973        C  0.67824669  0.71893548  0.87179864    -0.22900
C974        C  0.66750686  0.69446277  0.90261848     0.20000
F975        F  0.66348375  0.64058539  0.90401499    -0.12900
F976        F  0.64846003  0.69971329  0.96048197    -0.15200
F977        F  0.69233995  0.79998504  0.84216884    -0.15200
F978        F  0.67980506  0.85963838  0.90173189    -0.12900
C979        C  0.88036402  0.83455995  0.97370174     0.25100
C980        C  0.88254116  0.79296093  0.49872650    -0.23000
C981        C  0.90252182  0.79739055  0.52564326     0.20000
C982        C  0.91755478  0.84477958  0.52957898     0.25100
C983        C  0.91401103  0.88739734  0.50544116    -0.22900
C984        C  0.89660692  0.88033233  0.97604929     0.20000
F985        F  0.89358101  0.91973470  0.95131767    -0.12900
F986        F  0.86032962  0.83362267  0.94873598    -0.15200
F987        F  0.93517883  0.84947987  0.55735274    -0.15200
F988        F  0.90714590  0.75621133  0.54860670    -0.12900
C989        C  0.77411947  0.66596884  0.59651764     0.25100
C990        C  0.78814397  0.64239698  0.62524533    -0.23000
C991        C  0.81672508  0.63790193  0.62375893     0.20000
C992        C  0.83090011  0.65405366  0.59298297     0.25100
C993        C  0.81665567  0.67600135  0.56391106    -0.22900
C994        C  0.78830566  0.68329997  0.56637249     0.20000
F995        F  0.77433888  0.70740704  0.53950836    -0.12900
F996        F  0.74658592  0.67254868  0.59770940    -0.15200
F997        F  0.85829842  0.64632453  0.59094305    -0.15200
F998        F  0.83070352  0.61568134  0.65129549    -0.12900
C999        C  0.78992332  0.68562776  0.92906161     0.25100
C1000       C  0.81802711  0.67502753  0.93200172    -0.23000
C1001       C  0.83180273  0.64997301  0.90344138     0.20000
C1002       C  0.81736597  0.63397733  0.87289253     0.25100
C1003       C  0.78905908  0.64283004  0.87082312    -0.22900
C1004       C  0.77559728  0.66951434  0.89886966     0.20000
F1005       F  0.74843467  0.68016789  0.89695261    -0.12900
F1006       F  0.77625152  0.71168052  0.95557850    -0.15200
F1007       F  0.83068857  0.60756111  0.84625589    -0.15200
F1008       F  0.85887080  0.63896084  0.90583043    -0.12900
loop_ 
_geom_bond_atom_site_label_1 
_geom_bond_atom_site_label_2 
_geom_bond_distance 
_geom_bond_site_symmetry_2 
_ccdc_geom_bond_type 
C1            C6   1.406   1_556  A
C1          C254   1.411       .  A
C1          C224   1.487       .  S
C2            C3   1.401       .  A
C2          C253   1.410       .  A
C2            H7   1.083       .  S
C3            C4   1.398       .  A
C3          C244   1.476       .  S
C4          C257   1.397       .  A
C4            H8   1.085       .  S
C5            C6   1.396       .  A
C5          C256   1.397   1_554  A
C5          C237   1.472       .  S
C6            H9   1.083       .  S
C10          C15   1.411   1_556  A
C10         C263   1.414       .  A
C10         C194   1.496       .  S
C11          C12   1.403       .  A
C11         C262   1.415       .  A
C11          H16   1.080       .  S
C12          C13   1.400       .  A
C12         C214   1.483       .  S
C13         C266   1.399       .  A
C13          H17   1.084       .  S
C14          C15   1.397       .  A
C14         C265   1.398   1_554  A
C14         C204   1.482       .  S
C15          H18   1.082       .  S
C19          C24   1.412   1_556  A
C19         C272   1.413       .  A
C19         C167   1.504       .  S
C20          C21   1.406       .  A
C20         C271   1.412       .  A
C20          H25   1.081       .  S
C21          C22   1.401       .  A
C21         C187   1.488       .  S
C22         C275   1.398       .  A
C22          H26   1.084       .  S
C23          C24   1.401       .  A
C23         C274   1.398   1_554  A
C23         C174   1.481       .  S
C24          H27   1.080       .  S
N28          C33   1.356       .  A
N28          C32   1.354       .  A
N28          H60   1.035   1_565  S
N29          C36   1.352   1_545  A
N29          C37   1.354       .  A
N30          C35   1.355       .  A
N30          C34   1.356       .  A
N30          H61   1.035       .  S
N31          C38   1.351       .  A
N31          C39   1.350       .  A
C32          C40   1.386   1_554  A
C32          C48   1.417       .  A
C33          C41   1.390   1_554  A
C33         C553   1.423       .  A
C34          C42   1.390   1_554  A
C34          C51   1.424       .  A
C35          C43   1.384   1_554  A
C35         C554   1.417       .  A
C36          C48   1.419       .  A
C36          C44   1.388       .  A
C37          C51   1.418       .  A
C37          C45   1.387       .  A
C38          C46   1.388       .  A
C38          C49   1.414   1_545  A
C39          C47   1.387       .  A
C39          C50   1.414   1_455  A
C40          C41   1.369       .  A
C40          H52   1.082       .  S
C41         H557   1.080       .  S
C42          C43   1.371       .  A
C42          H54   1.080       .  S
C43          H55   1.082       .  S
C44          C45   1.369   1_565  A
C44          H56   1.082       .  S
C45          H57   1.081       .  S
C46          C47   1.365       .  A
C46          H58   1.081       .  S
C47          H59   1.082       .  S
C48         C227   1.489       .  S
C49         C537   1.422       .  A
C49         C197   1.489       .  S
C50         C539   1.417       .  A
C50         C154   1.487   1_655  S
C51         C164   1.495       .  S
H53         C545   1.081       .  S
C62          C67   1.406   1_556  A
C62         C315   1.408       .  A
C62         C157   1.490       .  S
C63          C64   1.401       .  A
C63         C314   1.408       .  A
C63          H68   1.083       .  S
C64          C65   1.399       .  A
C64         C147   1.474       .  S
C65         C318   1.401       .  A
C65          H69   1.084       .  S
C66          C67   1.403       .  A
C66         C317   1.402   1_554  A
C66         C134   1.481       .  S
C67          H70   1.082       .  S
O71         Zr83   2.441       .  S
O71          C73   1.287       .  A
O72        Zr109   2.406       .  S
O72          C73   1.284       .  A
C73         C247   1.468       .  S
O74         Zr86   2.453       .  S
O74          C76   1.289       .  A
O75        Zr110   2.395       .  S
O75          C76   1.282       .  A
C76         C207   1.483       .  S
O77         Zr86   2.451       .  S
O77          C79   1.289       .  A
O78        Zr109   2.405       .  S
O78          C79   1.284       .  A
C79         C217   1.478       .  S
O80         Zr83   2.451       .  S
O80          C82   1.289       .  A
O81        Zr110   2.396       .  S
O81          C82   1.282       .  A
C82         C234   1.470       .  S
Zr83         O84   2.434       .  S
Zr83         O85   2.436       .  S
Zr83         O89   2.376       .  S
Zr83         O90   2.374       .  S
Zr83        O113   2.371       .  S
Zr83        O115   2.376       .  S
O84         H127   0.990       .  S
O85         H126   0.990       .  S
O85         H130   0.990       .  S
Zr86         O87   2.437       .  S
Zr86         O88   2.433       .  S
Zr86         O90   2.370       .  S
Zr86         O89   2.375       .  S
Zr86        O114   2.378       .  S
Zr86        O116   2.380       .  S
O87         H128   0.990       .  S
O87         H131   0.990       .  S
O88         H121   0.990       .  S
O89        Zr109   2.375       .  S
O90        Zr110   2.375       .  S
O90         H117   0.966       .  S
O91        Zr103   2.446       .  S
O91          C93   1.288       .  A
O92        Zr110   2.403       .  S
O92          C93   1.282       .  A
C93         C177   1.463       .  S
O94        Zr106   2.431       .  S
O94          C96   1.284       .  A
O95        Zr109   2.418       .  S
O95          C96   1.285       .  A
C96         C144   1.461       .  S
O97        Zr106   2.444       .  S
O97          C99   1.287       .  A
O98        Zr110   2.410       .  S
O98          C99   1.283       .  A
C99         C137   1.465       .  S
O100       Zr103   2.446       .  S
O100        C102   1.288       .  A
O101       Zr109   2.417       .  S
O101        C102   1.285       .  A
C102        C184   1.473       .  S
Zr103       O104   2.436       .  S
Zr103       O105   2.433       .  S
Zr103       O111   2.372       .  S
Zr103       O112   2.373       .  S
Zr103       O115   2.369       .  S
Zr103       O113   2.373       .  S
O104        H124   0.990       .  S
O104        H129   0.990       .  S
O105        H125   0.990       .  S
Zr106       O107   2.434       .  S
Zr106       O108   2.434       .  S
Zr106       O112   2.376       .  S
Zr106       O111   2.371       .  S
Zr106       O116   2.372       .  S
Zr106       O114   2.377       .  S
O107        H123   0.990       .  S
O108        H122   0.990       .  S
O108        H132   0.990       .  S
Zr109       O112   2.372       .  S
Zr109       O114   2.378       .  S
Zr109       O115   2.378       .  S
Zr110       O111   2.374       .  S
Zr110       O113   2.374       .  S
Zr110       O116   2.369       .  S
O111        H119   0.965       .  S
O114        H118   0.966       .  S
O115        H120   0.968       .  S
C133        C134   1.409       .  A
C133        C138   1.398       .  A
C133        F140   1.358       .  S
C134        C135   1.407       .  A
C135        C136   1.397       .  A
C135        F142   1.358       .  S
C136        C137   1.402       .  A
C136        F141   1.357       .  S
C137        C138   1.402       .  A
C138        F139   1.358       .  S
C143        C144   1.402       .  A
C143        C148   1.397       .  A
C143        F150   1.358       .  S
C144        C145   1.402       .  A
C145        C146   1.397       .  A
C145        F152   1.357       .  S
C146        C147   1.405       .  A
C146        F151   1.358       .  S
C147        C148   1.407       .  A
C148        F149   1.358       .  S
C153        C154   1.402       .  A
C153        C158   1.399       .  A
C153        F664   1.358   1_455  S
C154        C407   1.404   1_554  A
C155        C156   1.393       .  A
C155        C406   1.403       .  A
C155        F414   1.358       .  S
C156        C409   1.410       .  A
C156        F413   1.357       .  S
C157        C158   1.413   1_556  A
C157        C408   1.411       .  A
C158        F663   1.358       .  S
F159        C662   1.358       .  S
F160        C657   1.358       .  S
F161        C408   1.358       .  S
F162        C407   1.358       .  S
C163        C168   1.398       .  A
C163        C416   1.404       .  A
C163        F170   1.358       .  S
C164        C165   1.403       .  A
C164        C415   1.404   1_554  A
C165        C166   1.399       .  A
C165        F172   1.358       .  S
C166        C167   1.415   1_554  A
C166        F171   1.357       .  S
C167        C420   1.416       .  A
C168        C419   1.416       .  A
C168        F169   1.357       .  S
C173        C174   1.409       .  A
C173        C178   1.400       .  A
C173        F180   1.358       .  S
C174        C175   1.408       .  A
C175        C176   1.394       .  A
C175        F182   1.358       .  S
C176        C177   1.401       .  A
C176        F181   1.358       .  S
C177        C178   1.403       .  A
C178        F179   1.358       .  S
C183        C184   1.404       .  A
C183        C188   1.399       .  A
C183        F190   1.358       .  S
C184        C185   1.404       .  A
C185        C186   1.398       .  A
C185        F192   1.358       .  S
C186        C187   1.410       .  A
C186        F191   1.358       .  S
C187        C188   1.410       .  A
C188        F189   1.358       .  S
C193        C198   1.398       .  A
C193        C446   1.415       .  A
C193        F200   1.356       .  S
C194        C195   1.415   1_556  A
C194        C445   1.415       .  A
C195        C196   1.394       .  A
C195        F202   1.358       .  S
C196        C197   1.402       .  A
C196        F201   1.358       .  S
C197        C450   1.404   1_554  A
C198        C449   1.405       .  A
C198        F199   1.358       .  S
C203        C204   1.404       .  A
C203        C208   1.388       .  A
C203        F210   1.357       .  S
C204        C205   1.408       .  A
C205        C206   1.403       .  A
C205        F212   1.358       .  S
C206        C207   1.410       .  A
C206        F211   1.358       .  S
C207        C208   1.410       .  A
C208        F209   1.358       .  S
C213        C214   1.406       .  A
C213        C218   1.387       .  A
C213        F220   1.357       .  S
C214        C215   1.407       .  A
C215        C216   1.408       .  A
C215        F222   1.357       .  S
C216        C217   1.410       .  A
C216        F221   1.358       .  S
C217        C218   1.404       .  A
C218        F219   1.358       .  S
C223        C228   1.392       .  A
C223        C476   1.410       .  A
C223        F230   1.357       .  S
C224        C225   1.412   1_556  A
C224        C475   1.410       .  A
C225        C226   1.399       .  A
C225        F232   1.358       .  S
C226        C227   1.405       .  A
C226        F231   1.358       .  S
C227        C480   1.403   1_554  A
C228        C479   1.404       .  A
C228        F229   1.358       .  S
C233        C234   1.408       .  A
C233        C238   1.391       .  A
C233        F240   1.359       .  S
C234        C235   1.405       .  A
C235        C236   1.400       .  A
C235        F242   1.358       .  S
C236        C237   1.406       .  A
C236        F241   1.358       .  S
C237        C238   1.403       .  A
C238        F239   1.359       .  S
C243        C244   1.406       .  A
C243        C248   1.390       .  A
C243        F250   1.358       .  S
C244        C245   1.405       .  A
C245        C246   1.402       .  A
C245        F252   1.357       .  S
C246        C247   1.407       .  A
C246        F251   1.358       .  S
C247        C248   1.403       .  A
C248        F249   1.359       .  S
C253        C258   1.407       .  A
C253        C476   1.486       .  S
C254        C255   1.402       .  A
C254        H259   1.083       .  S
C255        C256   1.399       .  A
C255        C496   1.478       .  S
C256        H260   1.085       .  S
C257        C258   1.397       .  A
C257        C489   1.472       .  S
C258        H261   1.083       .  S
C262        C267   1.411       .  A
C262        C446   1.499       .  S
C263        C264   1.402       .  A
C263        H268   1.080       .  S
C264        C265   1.400       .  A
C264        C466   1.482       .  S
C265        H269   1.084       .  S
C266        C267   1.397       .  A
C266        C456   1.483       .  S
C267        H270   1.082       .  S
C271        C276   1.412       .  A
C271        C419   1.502       .  S
C272        C273   1.408       .  A
C272        H277   1.081       .  S
C273        C274   1.400       .  A
C273        C439   1.488       .  S
C274        H278   1.084       .  S
C275        C276   1.400       .  A
C275        C426   1.482       .  S
C276        H279   1.080       .  S
N280        C285   1.356       .  A
N280        C284   1.354       .  A
N280        H312   1.036   1_565  S
N281        C288   1.352   1_545  A
N281        C289   1.354       .  A
N282        C287   1.353       .  A
N282        C286   1.355       .  A
N282        H313   1.035       .  S
N283        C290   1.352       .  A
N283        C291   1.351       .  A
C284        C292   1.386       .  A
C284        C300   1.417       .  A
C285        C805   1.422       .  A
C285        C293   1.389       .  A
C286        C294   1.390       .  A
C286        C303   1.423       .  A
C287        C806   1.415       .  A
C287        C295   1.384       .  A
C288        C300   1.418       .  A
C288        C296   1.387       .  A
C289        C303   1.418       .  A
C289        C297   1.387       .  A
C290        C298   1.387       .  A
C290        C301   1.416   1_545  A
C291        C299   1.387       .  A
C291        C302   1.416   1_455  A
C292        C293   1.369       .  A
C292        H304   1.082       .  S
C293        H809   1.081       .  S
C294        C295   1.370       .  A
C294        H306   1.080       .  S
C295        H307   1.082       .  S
C296        C297   1.369   1_565  A
C296        H308   1.082       .  S
C297        H309   1.081       .  S
C298        C299   1.367       .  A
C298        H310   1.081       .  S
C299        H311   1.082       .  S
C300        C479   1.490       .  S
C301        C789   1.423       .  A
C301        C449   1.492       .  S
C302        C791   1.416       .  A
C302        C406   1.488   1_655  S
C303        C416   1.494       .  S
H305        C797   1.080   1_455  S
C314        C319   1.406       .  A
C314        C409   1.488       .  S
C315        C316   1.401       .  A
C315        H320   1.083       .  S
C316        C317   1.401       .  A
C316        C399   1.476       .  S
C317        H321   1.084       .  S
C318        C319   1.402       .  A
C318        C386   1.478       .  S
C319        H322   1.082       .  S
O323       Zr335   2.446       .  S
O323        C325   1.288       .  A
O324       Zr361   2.404       .  S
O324        C325   1.284       .  A
C325        C499   1.470       .  S
O326       Zr338   2.452       .  S
O326        C328   1.289       .  A
O327       Zr362   2.396       .  S
O327        C328   1.282       .  A
C328        C459   1.483       .  S
O329       Zr338   2.451       .  S
O329        C331   1.289       .  A
O330       Zr361   2.408       .  S
O330        C331   1.285       .  A
C331        C469   1.479       .  S
O332       Zr335   2.450       .  S
O332        C334   1.289       .  A
O333       Zr362   2.393       .  S
O333        C334   1.281       .  A
C334        C486   1.468       .  S
Zr335       O336   2.435       .  S
Zr335       O337   2.436       .  S
Zr335       O341   2.376       .  S
Zr335       O342   2.375       .  S
Zr335       O365   2.370       .  S
Zr335       O367   2.375       .  S
O336        H379   0.990       .  S
O337        H378   0.990       .  S
O337        H382   0.990       .  S
Zr338       O339   2.437       .  S
Zr338       O340   2.432       .  S
Zr338       O342   2.369       .  S
Zr338       O341   2.374       .  S
Zr338       O366   2.377       .  S
Zr338       O368   2.379       .  S
O339        H380   0.990       .  S
O339        H383   0.990       .  S
O340        H373   0.990       .  S
O341       Zr361   2.376       .  S
O342       Zr362   2.376       .  S
O342        H369   0.966       .  S
O343       Zr355   2.445       .  S
O343        C345   1.287       .  A
O344       Zr362   2.405       .  S
O344        C345   1.283       .  A
C345        C429   1.462       .  S
O346       Zr358   2.431       .  S
O346        C348   1.285       .  A
O347       Zr361   2.418       .  S
O347        C348   1.285       .  A
C348        C396   1.462       .  S
O349       Zr358   2.446       .  S
O349        C351   1.287       .  A
O350       Zr362   2.412       .  S
O350        C351   1.283       .  A
C351        C389   1.466       .  S
O352       Zr355   2.445       .  S
O352        C354   1.288       .  A
O353       Zr361   2.421       .  S
O353        C354   1.286       .  A
C354        C436   1.475       .  S
Zr355       O356   2.435       .  S
Zr355       O357   2.434       .  S
Zr355       O363   2.373       .  S
Zr355       O364   2.373       .  S
Zr355       O367   2.370       .  S
Zr355       O365   2.373       .  S
O356        H376   0.990       .  S
O356        H381   0.990       .  S
O357        H377   0.990       .  S
Zr358       O359   2.432       .  S
Zr358       O360   2.433       .  S
Zr358       O364   2.374       .  S
Zr358       O363   2.370       .  S
Zr358       O368   2.369       .  S
Zr358       O366   2.378       .  S
O359        H375   0.990       .  S
O360        H374   0.990       .  S
O360        H384   0.990       .  S
Zr361       O364   2.368       .  S
Zr361       O366   2.377       .  S
Zr361       O367   2.379       .  S
Zr362       O363   2.371       .  S
Zr362       O365   2.375       .  S
Zr362       O368   2.365       .  S
O363        H371   0.965       .  S
O366        H370   0.966       .  S
O367        H372   0.968       .  S
C385        C386   1.408       .  A
C385        C390   1.398       .  A
C385        F392   1.358       .  S
C386        C387   1.407       .  A
C387        C388   1.397       .  A
C387        F394   1.358       .  S
C388        C389   1.403       .  A
C388        F393   1.357       .  S
C389        C390   1.402       .  A
C390        F391   1.358       .  S
C395        C396   1.402       .  A
C395        C400   1.398       .  A
C395        F402   1.358       .  S
C396        C397   1.401       .  A
C397        C398   1.397       .  A
C397        F404   1.357       .  S
C398        C399   1.405       .  A
C398        F403   1.357       .  S
C399        C400   1.408       .  A
C400        F401   1.358       .  S
C405        C406   1.404       .  A
C405        C410   1.399       .  A
C405        F916   1.358   1_455  S
C407        C408   1.393       .  A
C409        C410   1.413       .  A
C410        F915   1.358       .  S
F411        C914   1.358       .  S
F412        C909   1.358       .  S
C415        C420   1.399       .  A
C415        F422   1.358       .  S
C416        C417   1.403       .  A
C417        C418   1.398       .  A
C417        F424   1.358       .  S
C418        C419   1.415       .  A
C418        F423   1.357       .  S
C420        F421   1.356       .  S
C425        C426   1.409       .  A
C425        C430   1.400       .  A
C425        F432   1.357       .  S
C426        C427   1.408       .  A
C427        C428   1.394       .  A
C427        F434   1.358       .  S
C428        C429   1.400       .  A
C428        F433   1.359       .  S
C429        C430   1.403       .  A
C430        F431   1.358       .  S
C435        C436   1.404       .  A
C435        C440   1.399       .  A
C435        F442   1.358       .  S
C436        C437   1.405       .  A
C437        C438   1.399       .  A
C437        F444   1.358       .  S
C438        C439   1.410       .  A
C438        F443   1.358       .  S
C439        C440   1.409       .  A
C440        F441   1.358       .  S
C445        C450   1.397       .  A
C445        F452   1.356       .  S
C446        C447   1.416       .  A
C447        C448   1.395       .  A
C447        F454   1.358       .  S
C448        C449   1.402       .  A
C448        F453   1.358       .  S
C450        F451   1.359       .  S
C455        C456   1.403       .  A
C455        C460   1.388       .  A
C455        F462   1.357       .  S
C456        C457   1.409       .  A
C457        C458   1.404       .  A
C457        F464   1.358       .  S
C458        C459   1.410       .  A
C458        F463   1.358       .  S
C459        C460   1.410       .  A
C460        F461   1.358       .  S
C465        C466   1.406       .  A
C465        C470   1.386       .  A
C465        F472   1.357       .  S
C466        C467   1.407       .  A
C467        C468   1.408       .  A
C467        F474   1.357       .  S
C468        C469   1.411       .  A
C468        F473   1.357       .  S
C469        C470   1.404       .  A
C470        F471   1.357       .  S
C475        C480   1.393       .  A
C475        F482   1.357       .  S
C476        C477   1.411       .  A
C477        C478   1.399       .  A
C477        F484   1.358       .  S
C478        C479   1.406       .  A
C478        F483   1.358       .  S
C480        F481   1.358       .  S
C485        C486   1.407       .  A
C485        C490   1.390       .  A
C485        F492   1.359       .  S
C486        C487   1.405       .  A
C487        C488   1.399       .  A
C487        F494   1.358       .  S
C488        C489   1.406       .  A
C488        F493   1.357       .  S
C489        C490   1.404       .  A
C490        F491   1.359       .  S
C495        C496   1.406       .  A
C495        C500   1.390       .  A
C495        F502   1.358       .  S
C496        C497   1.406       .  A
C497        C498   1.403       .  A
C497        F504   1.357       .  S
C498        C499   1.407       .  A
C498        F503   1.358       .  S
C499        C500   1.404       .  A
C500        F501   1.359       .  S
C505        C758   1.411       .  A
C505        C510   1.406   1_556  A
C505        C728   1.487       .  S
C506        C757   1.410       .  A
C506        C507   1.401       .  A
C506        H511   1.083       .  S
C507        C508   1.398       .  A
C507        C748   1.475       .  S
C508        C761   1.397       .  A
C508        H512   1.085       .  S
C509        C760   1.397   1_554  A
C509        C510   1.398       .  A
C509        C741   1.472       .  S
C510        H513   1.083       .  S
C514        C767   1.413       .  A
C514        C519   1.412   1_556  A
C514        C698   1.496       .  S
C515        C766   1.413       .  A
C515        C516   1.403       .  A
C515        H520   1.080       .  S
C516        C517   1.400       .  A
C516        C718   1.482       .  S
C517        C770   1.399       .  A
C517        H521   1.084       .  S
C518        C769   1.400   1_554  A
C518        C519   1.399       .  A
C518        C708   1.485       .  S
C519        H522   1.082       .  S
C523        C776   1.413       .  A
C523        C528   1.411   1_556  A
C523        C671   1.503       .  S
C524        C775   1.413       .  A
C524        C525   1.407       .  A
C524        H529   1.081       .  S
C525        C526   1.400       .  A
C525        C691   1.487       .  S
C526        C779   1.398       .  A
C526        H530   1.084       .  S
C527        C778   1.399   1_554  A
C527        C528   1.401       .  A
C527        C678   1.482       .  S
C528        H531   1.081       .  S
N532        C537   1.356   1_655  A
N532        C536   1.354       .  A
N532        H564   1.035   1_565  S
N533        C540   1.352   1_545  A
N533        C541   1.354       .  A
N534        C539   1.355       .  A
N534        C538   1.356       .  A
N534        H565   1.034       .  S
N535        C542   1.352       .  A
N535        C543   1.351       .  A
C536        C544   1.386   1_554  A
C536        C552   1.417       .  A
C537        C545   1.389   1_554  A
C538        C546   1.390   1_554  A
C538        C555   1.424       .  A
C539        C547   1.384   1_554  A
C540        C552   1.420       .  A
C540        C548   1.388       .  A
C541        C555   1.419       .  A
C541        C549   1.386       .  A
C542        C550   1.388       .  A
C542        C553   1.417   1_545  A
C543        C551   1.386       .  A
C543        C554   1.415       .  A
C544        C545   1.369   1_655  A
C544        H556   1.082       .  S
C546        C547   1.370       .  A
C546        H558   1.080       .  S
C547        H559   1.082       .  S
C548        C549   1.370   1_565  A
C548        H560   1.082       .  S
C549        H561   1.081       .  S
C550        C551   1.366       .  A
C550        H562   1.081       .  S
C551        H563   1.082       .  S
C552        C731   1.490       .  S
C553        C701   1.492       .  S
C554        C658   1.490       .  S
C555        C668   1.496       .  S
C566        C819   1.407       .  A
C566        C571   1.405   1_556  A
C566        C661   1.488       .  S
C567        C818   1.409       .  A
C567        C568   1.400       .  A
C567        H572   1.083       .  S
C568        C569   1.399       .  A
C568        C651   1.475       .  S
C569        C822   1.401       .  A
C569        H573   1.084       .  S
C570        C821   1.402   1_554  A
C570        C571   1.402       .  A
C570        C638   1.479       .  S
C571        H574   1.082       .  S
O575       Zr587   2.443       .  S
O575        C577   1.287       .  A
O576       Zr613   2.406       .  S
O576        C577   1.284       .  A
C577        C751   1.469       .  S
O578       Zr590   2.449       .  S
O578        C580   1.288       .  A
O579       Zr614   2.398       .  S
O579        C580   1.282       .  A
C580        C711   1.483       .  S
O581       Zr590   2.450       .  S
O581        C583   1.289       .  A
O582       Zr613   2.403       .  S
O582        C583   1.284       .  A
C583        C721   1.478       .  S
O584       Zr587   2.449       .  S
O584        C586   1.289       .  A
O585       Zr614   2.393       .  S
O585        C586   1.281       .  A
C586        C738   1.468       .  S
Zr587       O588   2.434       .  S
Zr587       O589   2.435       .  S
Zr587       O593   2.375       .  S
Zr587       O594   2.372       .  S
Zr587       O617   2.371       .  S
Zr587       O619   2.377       .  S
O588        H631   0.990       .  S
O589        H630   0.990       .  S
O589        H634   0.990       .  S
Zr590       O591   2.436       .  S
Zr590       O592   2.433       .  S
Zr590       O594   2.370       .  S
Zr590       O593   2.373       .  S
Zr590       O618   2.376       .  S
Zr590       O620   2.380       .  S
O591        H632   0.990       .  S
O591        H635   0.990       .  S
O592        H625   0.990       .  S
O593       Zr613   2.374       .  S
O594       Zr614   2.375       .  S
O594        H621   0.966       .  S
O595       Zr607   2.443       .  S
O595        C597   1.287       .  A
O596       Zr614   2.405       .  S
O596        C597   1.283       .  A
C597        C681   1.462       .  S
O598       Zr610   2.433       .  S
O598        C600   1.285       .  A
O599       Zr613   2.416       .  S
O599        C600   1.284       .  A
C600        C648   1.461       .  S
O601       Zr610   2.443       .  S
O601        C603   1.287       .  A
O602       Zr614   2.409       .  S
O602        C603   1.283       .  A
C603        C641   1.464       .  S
O604       Zr607   2.441       .  S
O604        C606   1.287       .  A
O605       Zr613   2.412       .  S
O605        C606   1.284       .  A
C606        C688   1.470       .  S
Zr607       O608   2.438       .  S
Zr607       O609   2.433       .  S
Zr607       O615   2.372       .  S
Zr607       O616   2.373       .  S
Zr607       O619   2.372       .  S
Zr607       O617   2.373       .  S
O608        H628   0.990       .  S
O608        H633   0.990       .  S
O609        H629   0.990       .  S
Zr610       O611   2.433       .  S
Zr610       O612   2.432       .  S
Zr610       O616   2.374       .  S
Zr610       O615   2.372       .  S
Zr610       O620   2.370       .  S
Zr610       O618   2.377       .  S
O611        H627   0.990       .  S
O612        H626   0.990       .  S
O612        H636   0.990       .  S
Zr613       O616   2.370       .  S
Zr613       O618   2.376       .  S
Zr613       O619   2.381       .  S
Zr614       O615   2.372       .  S
Zr614       O617   2.373       .  S
Zr614       O620   2.368       .  S
O615        H623   0.965       .  S
O618        H622   0.966       .  S
O619        H624   0.968       .  S
C637        C638   1.409       .  A
C637        C642   1.397       .  A
C637        F644   1.358       .  S
C638        C639   1.407       .  A
C639        C640   1.396       .  A
C639        F646   1.358       .  S
C640        C641   1.402       .  A
C640        F645   1.357       .  S
C641        C642   1.402       .  A
C642        F643   1.358       .  S
C647        C648   1.401       .  A
C647        C652   1.397       .  A
C647        F654   1.358       .  S
C648        C649   1.402       .  A
C649        C650   1.398       .  A
C649        F656   1.357       .  S
C650        C651   1.405       .  A
C650        F655   1.357       .  S
C651        C652   1.407       .  A
C652        F653   1.358       .  S
C657        C658   1.404       .  A
C657        C662   1.399       .  A
C658        C911   1.404   1_554  A
C659        C910   1.401       .  A
C659        C660   1.393       .  A
C659        F918   1.358       .  S
C660        C913   1.411       .  A
C660        F917   1.357       .  S
C661        C912   1.409       .  A
C661        C662   1.412   1_556  A
F665        C912   1.358       .  S
F666        C911   1.358       .  S
C667        C920   1.404       .  A
C667        C672   1.399       .  A
C667        F674   1.358       .  S
C668        C919   1.405   1_554  A
C668        C669   1.403       .  A
C669        C670   1.399       .  A
C669        F676   1.358       .  S
C670        C671   1.415   1_554  A
C670        F675   1.357       .  S
C671        C924   1.415       .  A
C672        C923   1.415       .  A
C672        F673   1.357       .  S
C677        C678   1.410       .  A
C677        C682   1.401       .  A
C677        F684   1.358       .  S
C678        C679   1.408       .  A
C679        C680   1.393       .  A
C679        F686   1.358       .  S
C680        C681   1.400       .  A
C680        F685   1.358       .  S
C681        C682   1.403       .  A
C682        F683   1.358       .  S
C687        C688   1.403       .  A
C687        C692   1.397       .  A
C687        F694   1.358       .  S
C688        C689   1.404       .  A
C689        C690   1.398       .  A
C689        F696   1.359       .  S
C690        C691   1.411       .  A
C690        F695   1.358       .  S
C691        C692   1.409       .  A
C692        F693   1.357       .  S
C697        C950   1.415       .  A
C697        C702   1.398       .  A
C697        F704   1.356       .  S
C698        C949   1.415       .  A
C698        C699   1.413   1_556  A
C699        C700   1.395       .  A
C699        F706   1.358       .  S
C700        C701   1.403       .  A
C700        F705   1.358       .  S
C701        C954   1.405   1_554  A
C702        C953   1.405       .  A
C702        F703   1.358       .  S
C707        C708   1.404       .  A
C707        C712   1.388       .  A
C707        F714   1.356       .  S
C708        C709   1.409       .  A
C709        C710   1.404       .  A
C709        F716   1.358       .  S
C710        C711   1.410       .  A
C710        F715   1.358       .  S
C711        C712   1.409       .  A
C712        F713   1.358       .  S
C717        C718   1.406       .  A
C717        C722   1.386       .  A
C717        F724   1.357       .  S
C718        C719   1.407       .  A
C719        C720   1.407       .  A
C719        F726   1.357       .  S
C720        C721   1.410       .  A
C720        F725   1.358       .  S
C721        C722   1.404       .  A
C722        F723   1.358       .  S
C727        C980   1.409       .  A
C727        C732   1.393       .  A
C727        F734   1.358       .  S
C728        C979   1.409       .  A
C728        C729   1.412   1_556  A
C729        C730   1.400       .  A
C729        F736   1.358       .  S
C730        C731   1.406       .  A
C730        F735   1.358       .  S
C731        C984   1.403   1_554  A
C732        C983   1.405       .  A
C732        F733   1.358       .  S
C737        C738   1.407       .  A
C737        C742   1.390       .  A
C737        F744   1.359       .  S
C738        C739   1.404       .  A
C739        C740   1.399       .  A
C739        F746   1.357       .  S
C740        C741   1.405       .  A
C740        F745   1.357       .  S
C741        C742   1.405       .  A
C742        F743   1.359       .  S
C747        C748   1.406       .  A
C747        C752   1.390       .  A
C747        F754   1.358       .  S
C748        C749   1.405       .  A
C749        C750   1.403       .  A
C749        F756   1.357       .  S
C750        C751   1.407       .  A
C750        F755   1.358       .  S
C751        C752   1.403       .  A
C752        F753   1.359       .  S
C757        C762   1.406       .  A
C757        C980   1.486       .  S
C758        C759   1.402       .  A
C758        H763   1.083       .  S
C759        C760   1.398       .  A
C759       C1000   1.477       .  S
C760        H764   1.085       .  S
C761        C762   1.397       .  A
C761        C993   1.471       .  S
C762        H765   1.083       .  S
C766        C771   1.412       .  A
C766        C950   1.498       .  S
C767        C768   1.402       .  A
C767        H772   1.080       .  S
C768        C769   1.401       .  A
C768        C970   1.484       .  S
C769        H773   1.084       .  S
C770        C771   1.399       .  A
C770        C960   1.484       .  S
C771        H774   1.082       .  S
C775        C780   1.411       .  A
C775        C923   1.502       .  S
C776        C777   1.409       .  A
C776        H781   1.081       .  S
C777        C778   1.400       .  A
C777        C943   1.489       .  S
C778        H782   1.084       .  S
C779        C780   1.400       .  A
C779        C930   1.482       .  S
C780        H783   1.080       .  S
N784        C789   1.356   1_655  A
N784        C788   1.354       .  A
N784        H816   1.036   1_565  S
N785        C792   1.352   1_545  A
N785        C793   1.354       .  A
N786        C791   1.354       .  A
N786        C790   1.355       .  A
N786        H817   1.035       .  S
N787        C794   1.352       .  A
N787        C795   1.351       .  A
C788        C796   1.386       .  A
C788        C804   1.418       .  A
C789        C797   1.389   1_455  A
C790        C798   1.390       .  A
C790        C807   1.423       .  A
C791        C799   1.385       .  A
C792        C804   1.418       .  A
C792        C800   1.387       .  A
C793        C807   1.418       .  A
C793        C801   1.386       .  A
C794        C802   1.388       .  A
C794        C805   1.416   1_545  A
C795        C803   1.386       .  A
C795        C806   1.415       .  A
C796        C797   1.370       .  A
C796        H808   1.082       .  S
C798        C799   1.371       .  A
C798        H810   1.080       .  S
C799        H811   1.082       .  S
C800        C801   1.369   1_565  A
C800        H812   1.082       .  S
C801        H813   1.081       .  S
C802        C803   1.367       .  A
C802        H814   1.081       .  S
C803        H815   1.082       .  S
C804        C983   1.491       .  S
C805        C953   1.491       .  S
C806        C910   1.486       .  S
C807        C920   1.494       .  S
C818        C823   1.406       .  A
C818        C913   1.491       .  S
C819        C820   1.400       .  A
C819        H824   1.083       .  S
C820        C821   1.400       .  A
C820        C903   1.474       .  S
C821        H825   1.084       .  S
C822        C823   1.402       .  A
C822        C890   1.478       .  S
C823        H826   1.082       .  S
O827       Zr839   2.444       .  S
O827        C829   1.288       .  A
O828       Zr865   2.405       .  S
O828        C829   1.284       .  A
C829       C1003   1.468       .  S
O830       Zr842   2.452       .  S
O830        C832   1.289       .  A
O831       Zr866   2.390       .  S
O831        C832   1.281       .  A
C832        C963   1.481       .  S
O833       Zr842   2.451       .  S
O833        C835   1.289       .  A
O834       Zr865   2.410       .  S
O834        C835   1.285       .  A
C835        C973   1.480       .  S
O836       Zr839   2.448       .  S
O836        C838   1.289       .  A
O837       Zr866   2.392       .  S
O837        C838   1.281       .  A
C838        C990   1.468       .  S
Zr839       O840   2.434       .  S
Zr839       O841   2.433       .  S
Zr839       O845   2.375       .  S
Zr839       O846   2.372       .  S
Zr839       O869   2.369       .  S
Zr839       O871   2.376       .  S
O840        H883   0.990       .  S
O841        H882   0.990       .  S
O841        H886   0.990       .  S
Zr842       O843   2.436       .  S
Zr842       O844   2.433       .  S
Zr842       O846   2.370       .  S
Zr842       O845   2.372       .  S
Zr842       O870   2.375       .  S
Zr842       O872   2.381       .  S
O843        H884   0.990       .  S
O843        H887   0.990       .  S
O844        H877   0.990       .  S
O845       Zr865   2.374       .  S
O846       Zr866   2.377       .  S
O846        H873   0.966       .  S
O847       Zr859   2.447       .  S
O847        C849   1.288       .  A
O848       Zr866   2.407       .  S
O848        C849   1.283       .  A
C849        C933   1.465       .  S
O850       Zr862   2.428       .  S
O850        C852   1.284       .  A
O851       Zr865   2.414       .  S
O851        C852   1.284       .  A
C852        C900   1.458       .  S
O853       Zr862   2.443       .  S
O853        C855   1.287       .  A
O854       Zr866   2.406       .  S
O854        C855   1.282       .  A
C855        C893   1.462       .  S
O856       Zr859   2.443       .  S
O856        C858   1.288       .  A
O857       Zr865   2.420       .  S
O857        C858   1.286       .  A
C858        C940   1.474       .  S
Zr859       O860   2.436       .  S
Zr859       O861   2.432       .  S
Zr859       O867   2.373       .  S
Zr859       O868   2.375       .  S
Zr859       O871   2.371       .  S
Zr859       O869   2.370       .  S
O860        H880   0.990       .  S
O860        H885   0.990       .  S
O861        H881   0.990       .  S
Zr862       O863   2.434       .  S
Zr862       O864   2.433       .  S
Zr862       O868   2.374       .  S
Zr862       O867   2.370       .  S
Zr862       O872   2.370       .  S
Zr862       O870   2.377       .  S
O863        H879   0.990       .  S
O864        H878   0.990       .  S
O864        H888   0.990       .  S
Zr865       O868   2.372       .  S
Zr865       O870   2.377       .  S
Zr865       O871   2.378       .  S
Zr866       O867   2.371       .  S
Zr866       O869   2.369       .  S
Zr866       O872   2.369       .  S
O867        H875   0.965       .  S
O870        H874   0.966       .  S
O871        H876   0.968       .  S
C889        C890   1.408       .  A
C889        C894   1.397       .  A
C889        F896   1.358       .  S
C890        C891   1.407       .  A
C891        C892   1.396       .  A
C891        F898   1.358       .  S
C892        C893   1.402       .  A
C892        F897   1.357       .  S
C893        C894   1.401       .  A
C894        F895   1.358       .  S
C899        C900   1.400       .  A
C899        C904   1.396       .  A
C899        F906   1.358       .  S
C900        C901   1.401       .  A
C901        C902   1.397       .  A
C901        F908   1.357       .  S
C902        C903   1.405       .  A
C902        F907   1.357       .  S
C903        C904   1.407       .  A
C904        F905   1.358       .  S
C909        C910   1.403       .  A
C909        C914   1.400       .  A
C911        C912   1.394       .  A
C913        C914   1.414       .  A
C919        C924   1.400       .  A
C919        F926   1.358       .  S
C920        C921   1.403       .  A
C921        C922   1.398       .  A
C921        F928   1.358       .  S
C922        C923   1.415       .  A
C922        F927   1.358       .  S
C924        F925   1.357       .  S
C929        C930   1.409       .  A
C929        C934   1.401       .  A
C929        F936   1.358       .  S
C930        C931   1.408       .  A
C931        C932   1.394       .  A
C931        F938   1.358       .  S
C932        C933   1.401       .  A
C932        F937   1.358       .  S
C933        C934   1.404       .  A
C934        F935   1.358       .  S
C939        C940   1.404       .  A
C939        C944   1.398       .  A
C939        F946   1.358       .  S
C940        C941   1.404       .  A
C941        C942   1.399       .  A
C941        F948   1.359       .  S
C942        C943   1.412       .  A
C942        F947   1.358       .  S
C943        C944   1.409       .  A
C944        F945   1.357       .  S
C949        C954   1.398       .  A
C949        F956   1.357       .  S
C950        C951   1.414       .  A
C951        C952   1.395       .  A
C951        F958   1.358       .  S
C952        C953   1.402       .  A
C952        F957   1.358       .  S
C954        F955   1.359       .  S
C959        C960   1.404       .  A
C959        C964   1.388       .  A
C959        F966   1.356       .  S
C960        C961   1.409       .  A
C961        C962   1.402       .  A
C961        F968   1.357       .  S
C962        C963   1.409       .  A
C962        F967   1.358       .  S
C963        C964   1.410       .  A
C964        F965   1.359       .  S
C969        C970   1.406       .  A
C969        C974   1.387       .  A
C969        F976   1.357       .  S
C970        C971   1.408       .  A
C971        C972   1.409       .  A
C971        F978   1.358       .  S
C972        C973   1.411       .  A
C972        F977   1.358       .  S
C973        C974   1.404       .  A
C974        F975   1.358       .  S
C979        C984   1.392       .  A
C979        F986   1.357       .  S
C980        C981   1.411       .  A
C981        C982   1.398       .  A
C981        F988   1.358       .  S
C982        C983   1.406       .  A
C982        F987   1.358       .  S
C984        F985   1.358       .  S
C989        C990   1.407       .  A
C989        C994   1.390       .  A
C989        F996   1.359       .  S
C990        C991   1.405       .  A
C991        C992   1.400       .  A
C991        F998   1.358       .  S
C992        C993   1.406       .  A
C992        F997   1.358       .  S
C993        C994   1.403       .  A
C994        F995   1.359       .  S
C999       C1000   1.407       .  A
C999       C1004   1.390       .  A
C999       F1006   1.358       .  S
C1000      C1001   1.406       .  A
C1001      C1002   1.403       .  A
C1001      F1008   1.357       .  S
C1002      C1003   1.406       .  A
C1002      F1007   1.358       .  S
C1003      C1004   1.403       .  A
C1004      F1005   1.359       .  S
