geometry optimzed in LAMMPS
_audit_creation_date              2020-11-30 
_audit_creation_method            'lammps2cif' 
_symmetry_space_group_name_H-M    'P1' 
_symmetry_Int_Tables_number       1 
_symmetry_cell_setting            triclinic 
loop_ 
_symmetry_equiv_pos_as_xyz 
  x,y,z 
_cell_length_a                    33.98805991670165 
_cell_length_b                    45.82804100494505 
_cell_length_c                    86.97360107856316 
_cell_angle_alpha                 89.95340949942765 
_cell_angle_beta                  92.5354338921328 
_cell_angle_gamma                 89.97170215085785 
loop_ 
_atom_site_label 
_atom_site_type_symbol 
_atom_site_fract_x 
_atom_site_fract_y 
_atom_site_fract_z 
_atom_site_charge 
C1          C  0.24800077  0.09697809  0.26569187     0.44130
N2          N  0.26512977  0.06178049  0.28118790     0.03020
C3          C  0.27161158  0.08607057  0.35967632    -0.04860
H4          H  0.29310792  0.17547103  0.33038065     0.08510
C5          C  0.41774853  0.12520538  0.30478748    -0.05210
Co6        Co  0.24258885  0.07546425  0.31322398     0.74180
N7          N  0.28055257  0.13189845  0.32206956    -0.24390
Co8        Co  0.32380141  0.10546290  0.33248388     0.74070
C9          C  0.40780794  0.15449816  0.31006062     0.44230
N10         N  0.38207564  0.05792301  0.28676697     0.02630
N11         N  0.36756894  0.12384488  0.31928212     0.02740
N12         N  0.21930573  0.06666107  0.34629023    -0.45240
H13         H  0.21308685  0.11941857  0.28411071     0.08500
N14         N  0.24954960  0.12038125  0.31475860     0.03020
N15         N  0.36727768  0.07958586  0.34319122     0.02760
C16         C  0.41301283  0.06610610  0.35948794     0.44370
N17         N  0.34826004  0.04979162  0.28022073    -0.23840
C18         C  0.20800414  0.01285074  0.31823785    -0.04760
N19         N  0.27026247  0.07265485  0.26725525    -0.44950
N20         N  0.37976368  0.08205862  0.35778202    -0.45170
C21         C  0.21815039  0.48346500  0.31326140     0.44140
N22         N  0.24769743  0.07402122  0.33711658     0.03010
N23         N  0.34660952  0.50518689  0.30379462    -0.23870
N24         N  0.24183510  0.07831330  0.28922811    -0.24360
N25         N  0.37745355  0.01689571  0.31129786     0.02650
H26         H  0.33331717  0.46068297  0.29712269     0.08540
H27         H  0.44675224  0.04264292  0.34079709     0.08580
N28         N  0.27856099  0.08576437  0.34459678    -0.24410
N29         N  0.39108843  0.10759222  0.31101646    -0.24020
N30         N  0.25907306  0.01388133  0.30432353     0.03020
C31         C  0.23549803  0.16579788  0.31644381     0.44410
C32         C  0.35314772  0.04162145  0.26578392    -0.05270
N33         N  0.39125878  0.06375869  0.33504035    -0.24020
H34         H  0.44204740  0.11820668  0.29806514     0.08560
N35         N  0.22158976  0.13980936  0.31151715    -0.45240
H36         H  0.33155808  0.02906315  0.25908433     0.08550
C37         C  0.38998998  0.47107337  0.31166086     0.44250
C38         C  0.22884007  0.10053247  0.28024598    -0.04770
Co39       Co  0.30407754  0.03235967  0.29234394     0.73820
N40         N  0.41146076  0.05168883  0.27767028    -0.44960
C41         C  0.23255176  0.07307065  0.36069205     0.44510
N42         N  0.24976475  0.48581221  0.30454511    -0.44950
Co43       Co  0.38611894  0.06172352  0.31102066     0.73890
C44         C  0.42096947  0.05416615  0.34441073    -0.05280
C45         C  0.27443370  0.16068964  0.32368144    -0.04840
N46         N  0.23515313  0.03021877  0.31213611    -0.24370
N47         N  0.37691839  0.15187598  0.31912054    -0.45130
H48         H  0.29007295  0.09626488  0.36858124     0.08520
C49         C  0.35199910  0.47606844  0.30340681    -0.05250
Cl50       Cl  0.31437830  0.06866483  0.31244296    -0.48250
C51         C  0.39510330  0.04151146  0.26412445     0.44280
H52         H  0.18402336  0.01996801  0.32509555     0.08490
N53         N  0.40414910  0.49739919  0.31591331    -0.44960
C54         C  0.47243864  0.40641813  0.31107894     0.44130
N55         N  0.02131522  0.38044460  0.31933546     0.03020
C56         C  0.13239267  0.28486924  0.27687625    -0.04860
H57         H  0.54200803  0.28030883  0.25897141     0.08510
C58         C  0.49015080  0.24117136  0.32612170    -0.05210
Co59       Co  0.06487247  0.35335950  0.29369297     0.74180
N60         N  0.03032766  0.30274831  0.28001561    -0.24390
Co61       Co  0.06718631  0.27934939  0.29631510     0.74070
C62         C  0.47459140  0.22861942  0.31168162     0.44230
N63         N  0.01686259  0.30828850  0.34497894     0.02630
N64         N  0.02062131  0.25872690  0.30683377     0.02740
N65         N  0.11470888  0.32858811  0.26721340    -0.45240
H66         H  0.48540726  0.39710418  0.28578979     0.08500
N67         N  0.02141681  0.33039093  0.28222269     0.03020
N68         N  0.10628306  0.25678427  0.31100819     0.02760
C69         C  0.15391737  0.23004568  0.31955764     0.44370
N70         N  0.01843504  0.33705354  0.34427522    -0.23840
C71         C  0.13646691  0.39448698  0.30108461    -0.04760
N72         N  0.49223020  0.39715051  0.32394460    -0.44950
N73         N  0.13548894  0.24006504  0.30661208    -0.45170
C74         C  0.15325546  0.40850292  0.31492146     0.44140
N75         N  0.10680115  0.32699073  0.28207541     0.03010
N76         N  0.10411161  0.33583317  0.34678619    -0.23870
N77         N  0.02214146  0.37846963  0.30424098    -0.24360
N78         N  0.10290831  0.30711075  0.34808305     0.02650
H79         H  0.14270280  0.36873408  0.35683109     0.08540
H80         H  0.13874845  0.23812535  0.34476025     0.08580
N81         N  0.11308417  0.30019616  0.28705390    -0.24410
N82         N  0.01863539  0.25948508  0.32199569    -0.24020
N83         N  0.10739740  0.37930727  0.32125021     0.03020
C84         C  0.51753169  0.32702647  0.25752519     0.44410
C85         C  0.48843775  0.34812078  0.35185330    -0.05270
N86         N  0.10422742  0.25812255  0.32606169    -0.24020
H87         H  0.48319928  0.23581222  0.33780763     0.08560
N88         N  0.00963981  0.34389516  0.26949264    -0.45240
H89         H  0.48262366  0.37104903  0.35363465     0.08550
C90         C  0.15261412  0.32015765  0.36222560     0.44250
C91         C  0.49229608  0.39438783  0.29796521    -0.04770
Co92       Co  0.06297656  0.35868855  0.33322029     0.73820
N93         N  0.48727989  0.29878131  0.35302216    -0.44960
C94         C  0.13057292  0.30246596  0.26316019     0.44510
N95         N  0.13336735  0.39848789  0.32694001    -0.44950
Co96       Co  0.06037332  0.28278183  0.33565099     0.73890
C97         C  0.13316093  0.24160635  0.33255907    -0.05280
C98         C  0.52894917  0.29871037  0.26458345    -0.04840
N99         N  0.10831484  0.37683143  0.30612410    -0.24370
N100        N  0.49535113  0.24002690  0.30025995    -0.45130
H101        H  0.13215688  0.26123363  0.27684557     0.08520
C102        C  0.13452390  0.34605090  0.35545007    -0.05250
Cl103      Cl  0.06370653  0.31856107  0.31483521    -0.48250
C104        C  0.46765186  0.32274379  0.35733853     0.44280
H105        H  0.14221221  0.39868896  0.28915265     0.08490
N106        N  0.13155572  0.29674271  0.35737849    -0.44960
C107        C  0.04866599  0.39671186  0.23808170     0.44130
N108        N  0.50377815  0.42278317  0.22643007     0.03020
C109        C  0.01102469  0.46108485  0.14910377    -0.04860
H110        H  0.99658412  0.04679025  0.18499355     0.08510
C111        C  0.35969310  0.00589723  0.19849156    -0.05210
Co112      Co  0.03066834  0.43892721  0.19510355     0.74180
N113        N  0.00395665  0.00070623  0.18926514    -0.24390
Co114      Co  0.45865840  0.48118836  0.17568563     0.74070
C115        C  0.37169124  0.03420555  0.19332618     0.44230
N116        N  0.39155391  0.44500754  0.21845473     0.02630
N117        N  0.41506790  0.00315036  0.18719701     0.02740
N118        N  0.05693887  0.43457854  0.16253125    -0.45240
H119        H  0.09145803  0.40756484  0.21929429     0.08500
N120        N  0.03146597  0.48521038  0.19692412     0.03020
N121        N  0.41344861  0.45925161  0.16324921     0.02760
C122        C  0.37214095  0.44553650  0.14551378     0.44370
N123        N  0.41957407  0.42995943  0.22582681    -0.23840
C124        C  0.05122562  0.37634358  0.18749248    -0.04760
N125        N  0.01193122  0.40664428  0.23868401    -0.44950
N126        N  0.40565417  0.46076728  0.14821775    -0.45170
C127        C  0.03942887  0.34818955  0.19305336     0.44140
N128        N  0.02904464  0.44390382  0.17145210     0.03010
N129        N  0.41195378  0.38326788  0.20198562    -0.23870
N130        N  0.03519630  0.42925262  0.21878271    -0.24360
N131        N  0.38415014  0.39819866  0.19453854     0.02650
H132        H  0.42028217  0.33726301  0.20643675     0.08540
H133        H  0.33177516  0.42412880  0.16278225     0.08580
N134        N  0.00192676  0.45956870  0.16395987    -0.24410
N135        N  0.38802201  0.98808404  0.19411461    -0.24020
N136        N  0.49939104  0.38023350  0.20109193     0.03020
C137        C  0.04918804  0.03004852  0.19996829     0.44410
C138        C  0.42634922  0.44189679  0.23983991    -0.05270
N139        N  0.38622145  0.44463088  0.17050603    -0.24020
H140        H  0.33233778  0.99925727  0.20334744     0.08560
N141        N  0.05971232  0.00206450  0.20319142    -0.45240
H142        H  0.45104073  0.43693703  0.24764335     0.08550
C143        C  0.36654462  0.35353823  0.19190414     0.44250
C144        C  0.06495118  0.41287692  0.22513762    -0.04770
Co145      Co  0.45814389  0.40379842  0.21388716     0.73820
N146        N  0.38002638  0.46765664  0.22662097    -0.44960
C147        C  0.04727016  0.44417863  0.14827259     0.44510
N148        N  0.50760455  0.35193077  0.20170188    -0.44950
Co149      Co  0.38658712  0.44353803  0.19442888     0.73890
C150        C  0.35885631  0.43510687  0.16018532    -0.05280
C151        C  0.01264303  0.02911920  0.19064097    -0.04840
N152        N  0.02535823  0.39472672  0.19317235    -0.24370
N153        N  0.40573928  0.03119478  0.18602480    -0.45130
H154        H  0.49564246  0.47390999  0.14029086     0.08520
C155        C  0.40340894  0.35476282  0.20101026    -0.05250
Cl156      Cl  0.45868574  0.44195118  0.19463874    -0.48250
C157        C  0.40045584  0.46712656  0.24027125     0.44280
H158        H  0.07809912  0.38252179  0.18212709     0.08490
N159        N  0.35582880  0.38126959  0.18847053    -0.44960
C160        C  0.12274906  0.23333951  0.23797008     0.44130
N161        N  0.16770397  0.21199460  0.22536328     0.03020
C162        C  0.14420485  0.17304332  0.14820722    -0.04860
H163        H  0.16820829  0.08663921  0.18402476     0.08510
C164        C  0.30676228  0.12884746  0.19765472    -0.05210
Co165      Co  0.13425181  0.19393778  0.19430310     0.74180
N166        N  0.16090861  0.13268527  0.18822499    -0.24390
Co167      Co  0.20276505  0.15280998  0.17455442     0.74070
C168        C  0.29381035  0.10038342  0.19266593     0.44230
N169        N  0.27841198  0.18974993  0.21729866     0.02630
N170        N  0.24915115  0.13119331  0.18608865     0.02740
N171        N  0.10064604  0.19853241  0.16181414    -0.45240
H172        H  0.07573176  0.21906587  0.21981060     0.08500
N173        N  0.13507918  0.14779767  0.19603452     0.03020
N174        N  0.24527159  0.17481344  0.16179458     0.02760
C175        C  0.28375449  0.18740893  0.14395419     0.44370
N176        N  0.25225492  0.20507572  0.22462604    -0.23840
C177        C  0.10896338  0.25608070  0.18714231    -0.04760
N178        N  0.16115350  0.22778944  0.23762576    -0.44950
N179        N  0.25042793  0.17257618  0.14678299    -0.45170
C180        C  0.12114876  0.28447230  0.19261606     0.44140
N181        N  0.13072723  0.18932694  0.17066512     0.03010
N182        N  0.25324260  0.25126529  0.20056913    -0.23870
N183        N  0.13505866  0.20313324  0.21805854    -0.24360
N184        N  0.27972198  0.23654009  0.19319432     0.02650
H185        H  0.24553642  0.29710514  0.20524738     0.08540
H186        H  0.32733947  0.20934158  0.16132808     0.08580
N187        N  0.15653604  0.17424757  0.16305723    -0.24410
N188        N  0.27748578  0.14649371  0.19301263    -0.24020
N189        N  0.16513455  0.25342726  0.19999764     0.03020
C190        C  0.11914780  0.10279297  0.19924591     0.44410
C191        C  0.24932001  0.19377809  0.23881424    -0.05270
N192        N  0.27397491  0.18962742  0.16904006    -0.24020
H193        H  0.33498387  0.13563565  0.20265700     0.08560
N194        N  0.10892669  0.13063585  0.20250618    -0.45240
H195        H  0.22656434  0.19906064  0.24664389     0.08550
C196        C  0.29635976  0.28137729  0.19078812     0.44250
C197        C  0.10490425  0.21626489  0.22508685    -0.04770
Co198      Co  0.21024075  0.23070982  0.21266016     0.73820
N199        N  0.29200231  0.16735822  0.22568299    -0.44960
C200        C  0.10746143  0.18948886  0.14751155     0.44510
N201        N  0.15575529  0.28148193  0.20082173    -0.44950
Co202      Co  0.27828076  0.19107168  0.19317078     0.73890
C203        C  0.29961606  0.19848415  0.15868920    -0.05280
C204        C  0.15315510  0.10415287  0.18967582    -0.04840
N205        N  0.13740394  0.23831948  0.19241627    -0.24370
N206        N  0.25828285  0.10312528  0.18519964    -0.45130
H207        H  0.15785772  0.16061897  0.13931483     0.08520
C208        C  0.26128981  0.27981036  0.19970585    -0.05250
Cl209      Cl  0.20626176  0.19215000  0.19360489    -0.48250
C210        C  0.27536647  0.16851717  0.23949167     0.44280
H211        H  0.08074924  0.24925518  0.18214507     0.08490
N212        N  0.30672734  0.25373395  0.18734456    -0.44960
C213        C  0.34860389  0.18591596  0.10514847     0.44130
N214        N  0.39303560  0.20127292  0.09029004     0.03020
C215        C  0.41273502  0.17276095  0.01264480    -0.04860
H216        H  0.41715861  0.08498702  0.04207693     0.08510
C217        C  0.04941143  0.13027617  0.06945357    -0.05210
Co218      Co  0.37421589  0.18662619  0.05692117     0.74180
N219        N  0.40924380  0.12956246  0.04966548    -0.24390
Co220      Co  0.45534194  0.15575533  0.04075241     0.74070
C221        C  0.03820268  0.10180052  0.06324941     0.44230
N222        N  0.01127477  0.19062912  0.08833182     0.02630
N223        N  0.49804002  0.13390126  0.05401640     0.02740
N224        N  0.35237825  0.17773326  0.02168563    -0.45240
H225        H  0.31326644  0.16478748  0.08486767     0.08500
N226        N  0.37966613  0.14220796  0.05650931     0.03020
N227        N  0.49773581  0.18363629  0.03175455     0.02760
C228        C  0.01987133  0.21808544  0.01738666     0.44370
N229        N  0.48153220  0.20346795  0.09496312    -0.23840
C230        C  0.34511995  0.25076937  0.05141231    -0.04760
N231        N  0.38209220  0.20159605  0.10474274    -0.44950
N232        N  0.99549412  0.19485605  0.01764230    -0.45170
C233        C  0.35520934  0.27919665  0.05801490     0.44140
N234        N  0.37985228  0.18420193  0.03259072     0.03010
N235        N  0.48415979  0.25109233  0.07345442    -0.23870
N236        N  0.36818455  0.18689171  0.08097234    -0.24360
N237        N  0.01407366  0.23828191  0.06706167     0.02650
H238        H  0.47638656  0.29482378  0.08214944     0.08540
H239        H  0.05448001  0.23845131  0.03777622     0.08580
N240        N  0.41471846  0.17792220  0.02761906    -0.24410
N241        N  0.02275413  0.14875874  0.06305247    -0.24020
N242        N  0.39589513  0.24730047  0.06729910     0.03020
C243        C  0.36154217  0.09770014  0.05495132     0.44410
C244        C  0.48805178  0.20192123  0.11027823    -0.05270
N245        N  0.02131983  0.19881746  0.04110104    -0.24020
H246        H  0.07410699  0.13621941  0.07707751     0.08560
N247        N  0.35080160  0.12421870  0.05963204    -0.45240
H248        H  0.47040360  0.21224046  0.11878187     0.08550
C249        C  0.03292531  0.28217123  0.07006850     0.44250
C250        C  0.33902239  0.17630295  0.08937916    -0.04770
Co251      Co  0.43836102  0.22615745  0.08169255     0.73820
N252        N  0.03839535  0.18065020  0.09830920    -0.44960
C253        C  0.37151186  0.17039093  0.00869913     0.44510
N254        N  0.38645642  0.27532280  0.06791476    -0.44950
Co255      Co  0.01810451  0.19389129  0.06488809     0.73890
C256        C  0.03722171  0.22061105  0.03299879    -0.05280
C257        C  0.40027544  0.10094155  0.04814675    -0.04840
N258        N  0.37188764  0.23234660  0.05779449    -0.24370
N259        N  0.50653877  0.10570039  0.05356893    -0.45130
H260        H  0.43599357  0.16164897  0.00684057     0.08520
C261        C  0.49341461  0.27929276  0.07585181    -0.05250
Cl262      Cl  0.44639515  0.19050336  0.06117892    -0.48250
C263        C  0.02548083  0.18640382  0.11234479     0.44280
H264        H  0.32009051  0.24461569  0.04401514     0.08490
N265        N  0.04396485  0.25597402  0.06510152    -0.44960
C266        C  0.29780941  0.44853504  0.10780871     0.44130
N267        N  0.25267092  0.43073405  0.09276255     0.03020
C268        C  0.22409870  0.45711640  0.01499499    -0.04860
H269        H  0.22134007  0.04454568  0.04220405     0.08510
C270        C  0.09276475  0.99808282  0.06928812    -0.05210
Co271      Co  0.26725482  0.44467089  0.05976760     0.74180
N272        N  0.23031909  0.00098693  0.05140183    -0.24390
Co273      Co  0.18395762  0.47364568  0.04223585     0.74070
C274        C  0.10262095  0.02666008  0.06321142     0.44230
N275        N  0.13399486  0.43901219  0.08930293     0.02630
N276        N  0.14218159  0.99499686  0.05458956     0.02740
N277        N  0.28521863  0.45416363  0.02553469    -0.45240
H278        H  0.32955390  0.46944109  0.08777951     0.08500
N279        N  0.26103429  0.48904402  0.05887336     0.03020
N280        N  0.14240946  0.44471002  0.03284385     0.02760
C281        C  0.13192304  0.40511305  0.01976743     0.44370
N282        N  0.16490058  0.42680133  0.09656163    -0.23840
C283        C  0.29562792  0.38099614  0.05412168    -0.04760
N284        N  0.26541678  0.43163048  0.10734491    -0.44950
N285        N  0.14893370  0.43146419  0.01965323    -0.45170
C286        C  0.28667792  0.35229042  0.06022445     0.44140
N287        N  0.25902855  0.44614399  0.03561909     0.03010
N288        N  0.16156651  0.37833185  0.07547126    -0.23870
N289        N  0.27559256  0.44532401  0.08360472    -0.24360
N290        N  0.13030012  0.39057275  0.06870618     0.02650
H291        H  0.17210947  0.33481733  0.08443009     0.08540
H292        H  0.10034145  0.38410295  0.03926699     0.08580
N293        N  0.22351100  0.45150640  0.02991122    -0.24410
N294        N  0.11893699  0.47986107  0.06328628    -0.24020
N295        N  0.24867048  0.38377200  0.07017903     0.03020
C296        C  0.27884695  0.03336028  0.05617712     0.44410
C297        C  0.15996410  0.42870712  0.11178067    -0.05270
N298        N  0.12150480  0.42842458  0.04190412    -0.24020
H299        H  0.06941549  0.99194656  0.07669994     0.08560
N300        N  0.29043019  0.00733266  0.06170706    -0.45240
H301        H  0.17891983  0.41901791  0.12070492     0.08550
C302        C  0.11314977  0.34648869  0.07177686     0.44250
C303        C  0.30504394  0.45741357  0.09214098    -0.04770
Co304      Co  0.20742824  0.40444174  0.08401754     0.73820
N305        N  0.10761341  0.44885093  0.09872102    -0.44960
C306        C  0.26466284  0.46234319  0.01239089     0.44510
N307        N  0.25775806  0.35560969  0.07024610    -0.44950
Co308      Co  0.12518484  0.43480241  0.06571843     0.73890
C309        C  0.11238129  0.40348926  0.03431469    -0.05280
C310        C  0.23897684  0.02939862  0.04911423    -0.04840
N311        N  0.27067160  0.39911305  0.06087709    -0.24370
N312        N  0.13314208  0.02311795  0.05400191    -0.45130
H313        H  0.19968268  0.46775807  0.00879373     0.08520
C314        C  0.15356958  0.35000217  0.07791601    -0.05250
Cl315      Cl  0.19619336  0.43959759  0.06323993    -0.48250
C316        C  0.12220521  0.44370723  0.11306415     0.44280
H317        H  0.31833611  0.38739071  0.04647031     0.08490
N318        N  0.10050711  0.37243776  0.06662402    -0.44960
C319        C  0.00218865  0.28676827  0.98689315     0.44130
N320        N  0.02479841  0.32125436  0.97266777     0.03020
C321        C  0.03864605  0.30059968  0.89418605    -0.04860
H322        H  0.04813992  0.20900173  0.92323797     0.08510
C323        C  0.17749305  0.25327865  0.95491379    -0.05210
Co324      Co  0.00600654  0.31064236  0.93930632     0.74180
N325        N  0.04005694  0.25311069  0.93137572    -0.24390
Co326      Co  0.08665125  0.27781246  0.92349737     0.74070
C327        C  0.16763559  0.22480991  0.94836333     0.44230
N328        N  0.14242887  0.31954513  0.97297729     0.02630
N329        N  0.12800316  0.25671108  0.93840225     0.02740
N330        N  0.48709550  0.32210247  0.90526847    -0.45240
H331        H  0.46848732  0.26634091  0.96632365     0.08500
N332        N  0.00981709  0.26621109  0.93738956     0.03020
N333        N  0.13284157  0.30267305  0.91541218     0.02760
C334        C  0.17844789  0.31850146  0.90127513     0.44370
N335        N  0.10770661  0.32698459  0.97768328    -0.23840
C336        C  0.47548974  0.37441604  0.93439999    -0.04760
N337        N  0.02648782  0.31004156  0.98678378    -0.44950
N338        N  0.14501834  0.30261035  0.90112831    -0.45170
C339        C  0.48637527  0.40287197  0.94073544     0.44140
N340        N  0.01393245  0.31318962  0.91571675     0.03010
N341        N  0.11466583  0.37480322  0.95554827    -0.23870
N342        N  0.00164793  0.30604420  0.96315474    -0.24360
N343        N  0.14466679  0.36181002  0.94916426     0.02650
H344        H  0.10657211  0.41962612  0.96271139     0.08540
H345        H  0.21193140  0.33952381  0.92198904     0.08580
N346        N  0.04430056  0.30017608  0.90957530    -0.24410
N347        N  0.15142521  0.27168712  0.94810249    -0.24020
N348        N  0.02596054  0.37068095  0.95029009     0.03020
C349        C  0.99087014  0.22228998  0.93466114     0.44410
C350        C  0.10933267  0.33187290  0.99268537    -0.05270
N351        N  0.15691378  0.31704761  0.92504079    -0.24020
H352        H  0.20194992  0.25944630  0.96260269     0.08560
N353        N  0.97971637  0.24868711  0.93927631    -0.45240
H354        H  0.08641064  0.34345223  0.99844760     0.08550
C355        C  0.16311465  0.40626392  0.95060366     0.44250
C356        C  0.48547499  0.28423751  0.97117968    -0.04770
Co357      Co  0.06780202  0.34893859  0.96404744     0.73820
N358        N  0.16979274  0.32450253  0.98412491    -0.44960
C359        C  0.00095255  0.31547369  0.89143228     0.44510
N360        N  0.01745187  0.39888222  0.95069278    -0.44950
Co361      Co  0.14946084  0.31729268  0.94886005     0.73890
C362        C  0.18665974  0.32792287  0.91710725    -0.05280
C363        C  0.03076931  0.22484396  0.92917821    -0.04840
N364        N  0.00175211  0.35586589  0.94100698    -0.24370
N365        N  0.13722672  0.22862747  0.93805602    -0.45130
H366        H  0.05690154  0.28971882  0.88607943     0.08520
C367        C  0.12379483  0.40341691  0.95697208    -0.05250
Cl368      Cl  0.07756477  0.31380551  0.94379539    -0.48250
C369        C  0.15056992  0.33239916  0.99696751     0.44280
H370        H  0.45112678  0.36851120  0.92660398     0.08490
N371        N  0.17396065  0.37956275  0.94624353    -0.44960
C372        C  0.39381458  0.09839050  0.98529580     0.44130
N373        N  0.38393971  0.05872879  0.97210954     0.03020
C374        C  0.35856453  0.07813029  0.89344774    -0.04860
H375        H  0.35038517  0.17036643  0.92175334     0.08510
C376        C  0.22888904  0.12355960  0.95320551    -0.05210
Co377      Co  0.39816450  0.06971820  0.93893988     0.74180
N378        N  0.36130235  0.12653425  0.93021294    -0.24390
Co379      Co  0.31445750  0.10070237  0.92217888     0.74070
C380        C  0.23727130  0.15233170  0.94705125     0.44230
N381        N  0.26751158  0.05802900  0.97100092     0.02630
N382        N  0.27482502  0.12106935  0.93671627     0.02740
N383        N  0.41253896  0.05764032  0.90520738    -0.45240
H384        H  0.42282922  0.12041030  0.96547745     0.08500
N385        N  0.39309373  0.11396900  0.93636730     0.03020
N386        N  0.26836459  0.07478778  0.91383838     0.02760
C387        C  0.22145358  0.05798393  0.89927559     0.44370
N388        N  0.30320030  0.05147008  0.97609519    -0.23840
C389        C  0.43054753  0.00651840  0.93466039    -0.04760
N390        N  0.37809293  0.07160914  0.98546573    -0.44950
N391        N  0.25411744  0.07458972  0.89944045    -0.45170
C392        C  0.42145466  0.47779514  0.94077854     0.44140
N393        N  0.38706708  0.06634499  0.91530968     0.03010
N394        N  0.29431567  0.00315818  0.95414098    -0.23870
N395        N  0.40358110  0.07557383  0.96286699    -0.24360
N396        N  0.26293364  0.01555957  0.94735783     0.02650
H397        H  0.30412248  0.45900249  0.96238009     0.08540
H398        H  0.19143764  0.03665734  0.91961167     0.08580
N399        N  0.35535712  0.07880837  0.90877500    -0.24410
N400        N  0.25353139  0.10558272  0.94619297    -0.24020
N401        N  0.38217512  0.00914812  0.94988322     0.03020
C402        C  0.41042319  0.15802533  0.93337057     0.44410
C403        C  0.30416379  0.04663280  0.99109828    -0.05270
N404        N  0.24620310  0.06003218  0.92319939    -0.24020
H405        H  0.20650572  0.11700500  0.96096393     0.08560
N406        N  0.42324599  0.13186954  0.93811352    -0.45240
H407        H  0.32864920  0.03565053  0.99707546     0.08550
C408        C  0.24534734  0.47106634  0.94950135     0.44250
C409        C  0.41212399  0.10063603  0.97048865    -0.04770
Co410      Co  0.34158939  0.02998543  0.96299663     0.73820
N411        N  0.24217137  0.05201851  0.98178105    -0.44960
C412        C  0.39623766  0.06375795  0.89118840     0.44510
N413        N  0.39159631  0.48109424  0.95032194    -0.44950
Co414      Co  0.25686275  0.06003564  0.94693356     0.73890
C415        C  0.21573296  0.04853148  0.91498164    -0.05280
C416        C  0.36937466  0.15489830  0.92785784    -0.04840
N417        N  0.40461157  0.02453876  0.94097992    -0.24370
N418        N  0.26550725  0.14916640  0.93674134    -0.45130
H419        H  0.33872562  0.08857299  0.88507629     0.08520
C420        C  0.28583277  0.47460162  0.95604706    -0.05250
Cl421      Cl  0.32768315  0.06493224  0.94258221    -0.48250
C422        C  0.26379297  0.04393758  0.99471470     0.44280
H423        H  0.45342965  0.01289847  0.92708566     0.08490
N424        N  0.23331344  0.49742628  0.94461266    -0.44960
C425        C  0.16270403  0.08029595  0.39738486     0.44130
N426        N  0.12347509  0.09799248  0.41356824     0.03020
C427        C  0.11966249  0.08105666  0.49115000    -0.04860
H428        H  0.11315491  0.47913930  0.45818970     0.08510
C429        C  0.47996893  0.02358714  0.43670600    -0.05210
Co430      Co  0.15128774  0.08407417  0.44582304     0.74180
N431        N  0.12258879  0.02464127  0.45313335    -0.24390
Co432      Co  0.07952165  0.04686474  0.46406284     0.74070
C433        C  0.49209570  0.49468673  0.44129507     0.44230
N434        N  0.00641631  0.08723898  0.42005576     0.02630
N435        N  0.03419064  0.02516063  0.45090612     0.02740
N436        N  0.16217349  0.10832707  0.47845005    -0.45240
H437        H  0.20237727  0.05946173  0.41639307     0.08500
N438        N  0.15080830  0.03875730  0.44643798     0.03020
N439        N  0.03804390  0.06902702  0.47540462     0.02760
C440        C  0.49486615  0.06369853  0.49245921     0.44370
N441        N  0.03436807  0.10042127  0.41258311    -0.23840
C442        C  0.18137815  0.14605394  0.45012674    -0.04760
N443        N  0.13030841  0.09714265  0.39866177    -0.44950
N444        N  0.03252651  0.06052948  0.48952169    -0.45170
C445        C  0.17051495  0.17454288  0.44437708     0.44140
N446        N  0.14855891  0.08643330  0.46974202     0.03010
N447        N  0.03739813  0.14464738  0.43654355    -0.23870
N448        N  0.15029500  0.08341702  0.42196760    -0.24360
N449        N  0.01006609  0.13103097  0.44428764     0.02650
H450        H  0.04600794  0.18977142  0.43050320     0.08540
H451        H  0.44573337  0.07876818  0.47490863     0.08580
N452        N  0.12204247  0.07093317  0.47671609    -0.24410
N453        N  0.00734697  0.04088173  0.44320265    -0.24020
N454        N  0.12606752  0.14405481  0.43677153     0.03020
C455        C  0.16669929  0.49383648  0.44493248     0.44410
C456        C  0.02571565  0.09813997  0.39737977    -0.05270
N457        N  0.00641707  0.07990823  0.46829271    -0.24020
H458        H  0.45329440  0.03069804  0.43056646     0.08560
N459        N  0.17838452  0.02109084  0.44151423    -0.45240
H460        H  0.04248043  0.10749986  0.38831465     0.08550
C461        C  0.49449291  0.17623457  0.44515576     0.44250
C462        C  0.17622295  0.07147350  0.41272129    -0.04770
Co463      Co  0.08019526  0.12230665  0.42455289     0.73820
N464        N  0.47866935  0.07581740  0.41073664    -0.44960
C465        C  0.14531589  0.10636725  0.49220729     0.44510
N466        N  0.13637087  0.17194092  0.43583776    -0.44950
Co467      Co  0.00683115  0.08532829  0.44401678     0.73890
C468        C  0.47670088  0.07659128  0.47811104    -0.05280
C469        C  0.13003901  0.49599337  0.45279160    -0.04840
N470        N  0.15242030  0.12867477  0.44483693    -0.24370
N471        N  0.02540997  0.49691517  0.45042100    -0.45130
H472        H  0.09777589  0.07507125  0.49915993     0.08520
C473        C  0.03000333  0.17333017  0.43659968    -0.05250
Cl474      Cl  0.07935913  0.08467373  0.44454647    -0.48250
C475        C  0.48899390  0.08155383  0.39629861     0.44280
H476        H  0.20821918  0.13903036  0.45617596     0.08490
N477        N  0.48317531  0.14922348  0.44931304    -0.44960
C478        C  0.40210976  0.32834948  0.39469773     0.44130
N479        N  0.36784212  0.34834561  0.41172097     0.03020
C480        C  0.37263610  0.33517907  0.48943338    -0.04860
H481        H  0.37040427  0.23150939  0.45861284     0.08510
C482        C  0.23313882  0.27032300  0.43824770    -0.05210
Co483      Co  0.40037703  0.33701097  0.44354421     0.74180
N484        N  0.37657824  0.27684332  0.45247272    -0.24390
Co485      Co  0.33381733  0.29870200  0.46358523     0.74070
C486        C  0.24739233  0.24220258  0.44336387     0.44230
N487        N  0.25426454  0.33410059  0.42005559     0.02630
N488        N  0.28838403  0.27479723  0.45160470     0.02740
N489        N  0.40419271  0.36692295  0.47496082    -0.45240
H490        H  0.44616373  0.30916835  0.41282299     0.08500
N491        N  0.40320249  0.29143440  0.44511374     0.03020
N492        N  0.29299684  0.32199633  0.47483916     0.02760
C493        C  0.25317338  0.31619262  0.49297745     0.44370
N494        N  0.28033754  0.34834656  0.41213709    -0.23840
C495        C  0.42774947  0.39949914  0.44644214    -0.04760
N496        N  0.37055944  0.34553242  0.39665666    -0.44950
N497        N  0.29047046  0.31613356  0.48944274    -0.45170
C498        C  0.41472646  0.42749976  0.44083043     0.44140
N499        N  0.39831640  0.34189353  0.46746885     0.03010
N500        N  0.28290875  0.39347918  0.43550862    -0.23870
N501        N  0.39638443  0.33459545  0.41963379    -0.24360
N502        N  0.25711430  0.37909430  0.44364337     0.02650
H503        H  0.28886415  0.43886016  0.42947286     0.08540
H504        H  0.20031815  0.32604995  0.47604253     0.08580
N505        N  0.37646422  0.32403630  0.47528479    -0.24410
N506        N  0.25999192  0.28900696  0.44391211    -0.24020
N507        N  0.37118756  0.39578904  0.43410612     0.03020
C508        C  0.42174616  0.24686932  0.44431929     0.44410
C509        C  0.27092051  0.34530871  0.39708254    -0.05270
N510        N  0.25945973  0.32986038  0.46807306    -0.24020
H511        H  0.20549257  0.27608499  0.43238260     0.08560
N512        N  0.43140995  0.27426602  0.44017774    -0.45240
H513        H  0.28611596  0.35524852  0.38775006     0.08550
C514        C  0.23967886  0.42375388  0.44491171     0.44250
C515        C  0.41974077  0.32140855  0.40978713    -0.04770
Co516      Co  0.32540232  0.37213953  0.42307277     0.73820
N517        N  0.22685177  0.32127410  0.41116649    -0.44960
C518        C  0.38780065  0.36457709  0.48881752     0.44510
N519        N  0.37983649  0.42395690  0.43288074    -0.44950
Co520      Co  0.25677667  0.33341771  0.44392765     0.73890
C521        C  0.23173721  0.32601774  0.47861289    -0.05280
C522        C  0.38570783  0.24845618  0.45261056    -0.04840
N523        N  0.39920560  0.38132755  0.44173167    -0.24370
N524        N  0.28131338  0.24628311  0.45191884    -0.45130
H525        H  0.35409384  0.32695308  0.49812558     0.08520
C526        C  0.27422888  0.42192932  0.43573838    -0.05250
Cl527      Cl  0.32906044  0.33523797  0.44340366    -0.48250
C528        C  0.23596708  0.32695366  0.39658511     0.44280
H529        H  0.45534253  0.39333774  0.45222327     0.08490
N530        N  0.23006951  0.39648385  0.44920549    -0.44960
C531        C  0.35941565  0.43555970  0.51170424     0.44130
N532        N  0.40265695  0.44677917  0.52947660     0.03020
C533        C  0.39301702  0.46912034  0.60801252    -0.04860
H534        H  0.40626262  0.06170032  0.57591181     0.08510
C535        C  0.04259897  0.02418944  0.56106316    -0.05210
Co536      Co  0.37211230  0.45595417  0.56075585     0.74180
N537        N  0.39896157  0.01617972  0.57003170    -0.24390
Co538      Co  0.44446743  0.99439004  0.58272833     0.74070
C539        C  0.03022634  0.05130704  0.56757041     0.44230
N540        N  0.01120317  0.46723501  0.53840022     0.02630
N541        N  0.48764252  0.01887447  0.57240952     0.02740
N542        N  0.34575050  0.44570991  0.59367081    -0.45240
H543        H  0.31000824  0.44134531  0.52895974     0.08500
N544        N  0.37194592  0.00196761  0.56145476     0.03020
N545        N  0.49081170  0.47070072  0.59420500     0.02760
C546        C  0.03432321  0.45444706  0.61073255     0.44370
N547        N  0.48573032  0.45147035  0.53016682    -0.23840
C548        C  0.34825931  0.39254482  0.56376698    -0.04760
N549        N  0.39738560  0.43910896  0.51504783    -0.44950
N550        N  0.50014370  0.46966861  0.60920503    -0.45170
C551        C  0.35948244  0.36552657  0.55666415     0.44140
N552        N  0.37348708  0.45627855  0.58494300     0.03010
N553        N  0.49159531  0.40166226  0.55214716    -0.23870
N554        N  0.36985315  0.45241035  0.53630302    -0.24360
N555        N  0.01934357  0.41590858  0.56002985     0.02650
H556        H  0.48365455  0.35621396  0.54624885     0.08540
H557        H  0.07319777  0.43693875  0.59192267     0.08580
N558        N  0.40126338  0.47025584  0.59308442    -0.24410
N559        N  0.01469715  0.00540191  0.56470360    -0.24020
N560        N  0.40264202  0.39825843  0.55179526     0.03020
C561        C  0.35452816  0.04697546  0.55982121     0.44410
C562        C  0.47983904  0.46439726  0.51633397    -0.05270
N563        N  0.01776290  0.45785182  0.58599022    -0.24020
H564        H  0.06981571  0.01876524  0.55573213     0.08560
N565        N  0.34441184  0.01962104  0.55538597    -0.45240
H566        H  0.45793306  0.45868318  0.50757263     0.08550
C567        C  0.03718284  0.37116331  0.56132506     0.44250
C568        C  0.34029743  0.44462046  0.52605827    -0.04770
Co569      Co  0.44610549  0.42394885  0.54089281     0.73820
N570        N  0.01997623  0.49193392  0.53128507    -0.44960
C571        C  0.35650798  0.45263473  0.60835027     0.44510
N572        N  0.39304303  0.37049726  0.54913601    -0.44950
Co573      Co  0.01652661  0.46121700  0.56219220     0.73890
C574        C  0.04618264  0.44691184  0.59543310    -0.05280
C575        C  0.39032196  0.04476599  0.56962221    -0.04840
N576        N  0.37601476  0.41144686  0.56000673    -0.24370
N577        N  0.49641521  0.04674610  0.57481546    -0.45130
H578        H  0.40912760  0.48020118  0.61728452     0.08520
C579        C  0.50032679  0.37314837  0.55223768    -0.05250
Cl580      Cl  0.44471409  0.45869702  0.56181234    -0.48250
C581        C  0.00097017  0.49177954  0.51731073     0.44280
H582        H  0.32081758  0.39817143  0.56887121     0.08490
N583        N  0.04766316  0.39846231  0.56563328    -0.44960
C584        C  0.26056971  0.23682188  0.51189072     0.44130
N585        N  0.22493461  0.21619774  0.52823044     0.03020
C586        C  0.25894563  0.19580925  0.60625342    -0.04860
H587        H  0.23465415  0.10466053  0.57518645     0.08510
C588        C  0.09311895  0.14522938  0.56092572    -0.05210
Co589      Co  0.26552470  0.20965979  0.55913433     0.74180
N590        N  0.23999473  0.14981819  0.56850616    -0.24390
Co591      Co  0.19887722  0.17234529  0.58150515     0.74070
C592        C  0.10651888  0.11770888  0.56712530     0.44230
N593        N  0.11810449  0.20239882  0.53817907     0.02630
N594        N  0.15171656  0.14915045  0.57152624     0.02740
N595        N  0.30248950  0.21855467  0.59140510    -0.45240
H596        H  0.31356134  0.23567170  0.52933908     0.08500
N597        N  0.26498747  0.16370028  0.55976319     0.03020
N598        N  0.15737737  0.19671402  0.59341498     0.02760
C599        C  0.11905388  0.21217192  0.61056029     0.44370
N600        N  0.14210863  0.21712689  0.52966109    -0.23840
C601        C  0.29185519  0.27251525  0.56243643    -0.04760
N602        N  0.22569170  0.22520287  0.51395187    -0.44950
N603        N  0.15211072  0.19651592  0.60842822    -0.45170
C604        C  0.27951588  0.29973745  0.55543885     0.44140
N605        N  0.27145458  0.20907654  0.58310327     0.03010
N606        N  0.14688010  0.26656509  0.55153294    -0.23870
N607        N  0.26006104  0.21364848  0.53496773    -0.24360
N608        N  0.12103814  0.25323189  0.55991599     0.02650
H609        H  0.15539205  0.31168918  0.54531411     0.08540
H610        H  0.07523947  0.23124676  0.59243825     0.08580
N611        N  0.24581445  0.19542244  0.59150327    -0.24410
N612        N  0.12276506  0.16338957  0.56428375    -0.24020
N613        N  0.23507116  0.26737227  0.55012904     0.03020
C614        C  0.28232954  0.11867231  0.55874189     0.44410
C615        C  0.14052012  0.20555624  0.51544762    -0.05270
N616        N  0.12863552  0.21056827  0.58568026    -0.24020
H617        H  0.06449670  0.15130276  0.55600377     0.08560
N618        N  0.29136402  0.14586222  0.55398971    -0.45240
H619        H  0.15960159  0.21085871  0.50628702     0.08550
C620        C  0.10620556  0.29851420  0.56129313     0.44250
C621        C  0.28472965  0.22766870  0.52565537    -0.04770
Co622      Co  0.18716765  0.24245495  0.53980835     0.73820
N623        N  0.10280636  0.17943160  0.53076218    -0.44960
C624        C  0.29619637  0.21140674  0.60612413     0.44510
N625        N  0.24436030  0.29519750  0.54773079    -0.44950
Co626      Co  0.12185043  0.20774302  0.56198640     0.73890
C627        C  0.10328693  0.22121147  0.59554736    -0.05280
C628        C  0.24867217  0.12124924  0.56847568    -0.04840
N629        N  0.26304794  0.25394025  0.55846210    -0.24370
N630        N  0.14269856  0.12141119  0.57389679    -0.45130
H631        H  0.24565733  0.18449706  0.61563230     0.08520
C632        C  0.13982325  0.29532957  0.55163746    -0.05250
Cl633      Cl  0.19339985  0.20822574  0.56079235    -0.48250
C634        C  0.11566623  0.17992440  0.51626924     0.44280
H635        H  0.32012418  0.26663275  0.56775368     0.08490
N636        N  0.09562884  0.27157622  0.56585586    -0.44960
C637        C  0.37403036  0.20502491  0.64272605     0.44130
N638        N  0.41320006  0.18557741  0.65975786     0.03020
C639        C  0.41647033  0.22095598  0.73695191    -0.04860
H640        H  0.43295671  0.30265057  0.70779031     0.08510
C641        C  0.06695748  0.25360269  0.69094558    -0.05210
Co642      Co  0.38883813  0.20199212  0.69137414     0.74180
N643        N  0.42457902  0.25803927  0.70018701    -0.24390
Co644      Co  0.46601927  0.23096825  0.71255728     0.74070
C645        C  0.05553796  0.28234195  0.69635500     0.44230
N646        N  0.03077230  0.19406898  0.66933735     0.02630
N647        N  0.51221799  0.25134965  0.70253898     0.02740
N648        N  0.36059294  0.22227130  0.72243889    -0.45240
H649        H  0.33765069  0.22728081  0.66094226     0.08500
N650        N  0.39660460  0.24591603  0.69130736     0.03020
N651        N  0.50338500  0.20246325  0.72452313     0.02760
C652        C  0.00743544  0.16335400  0.73836757     0.44370
N653        N  0.50199809  0.18186542  0.66078459    -0.23840
C654        C  0.35785894  0.13836536  0.69686910    -0.04760
N655        N  0.40520799  0.18687891  0.64469151    -0.44950
N656        N  0.99144933  0.18999212  0.73724983    -0.45170
C657        C  0.36856262  0.10922313  0.69173254     0.44140
N658        N  0.38782494  0.20690730  0.71545263     0.03010
N659        N  0.49913843  0.13390053  0.68238121    -0.23390
N660        N  0.38816935  0.20093865  0.66760894    -0.24360
N661        N  0.02777945  0.14663685  0.69056294     0.02650
H662        H  0.49282029  0.08981829  0.67364739     0.08540
H663        H  0.04526327  0.14080296  0.72122421     0.08580
N664        N  0.42166180  0.21011905  0.72305303    -0.24410
N665        N  0.03819666  0.23580665  0.69536490    -0.24020
N666        N  0.40988617  0.14008182  0.68328157     0.03020
C667        C  0.38117030  0.29087001  0.69078770     0.44410
C668        C  0.01019625  0.18515342  0.64591820    -0.05270
N669        N  0.02705834  0.18545174  0.71696302    -0.24020
H670        H  0.09299402  0.24705334  0.68511966     0.08560
N671        N  0.37006947  0.26448553  0.68574465    -0.45240
H672        H  0.49299438  0.17663221  0.63617162     0.08550
C673        C  0.04689111  0.10258389  0.68921827     0.44250
C674        C  0.36236903  0.21401110  0.65780685    -0.04770
Co675      Co  0.45570448  0.15970011  0.67121533     0.73820
N676        N  0.05880999  0.20536291  0.66112911    -0.44960
C677        C  0.37739378  0.23234999  0.73592165     0.44510
N678        N  0.40073384  0.11193990  0.68327746    -0.44950
Co679      Co  0.03200162  0.19078613  0.69316052     0.73890
C680        C  0.03233241  0.16068923  0.72521255    -0.05280
C681        C  0.41710370  0.28690520  0.70063702    -0.04840
N682        N  0.38505633  0.15609890  0.69113344    -0.24370
N683        N  0.02162177  0.27932592  0.70361493    -0.45130
H684        H  0.44031211  0.23145592  0.74352978     0.08520
C685        C  0.00865187  0.10550901  0.68084324    -0.05250
Cl686      Cl  0.46055149  0.19582286  0.69180290    -0.48250
C687        C  0.04755337  0.20096867  0.64631740     0.44280
H688        H  0.33277870  0.14521944  0.70319723     0.08490
N689        N  0.05701860  0.12892608  0.69451468    -0.44960
C690        C  0.14493251  0.06608154  0.86250860     0.44130
N691        N  0.10500473  0.05328604  0.84405728     0.03020
C692        C  0.10695406  0.06943124  0.76718577    -0.04860
H693        H  0.10334389  0.17407992  0.79955982     0.08510
C694        C  0.46561312  0.13274327  0.81342350    -0.05210
Co695      Co  0.13653329  0.06830665  0.81361928     0.74180
N696        N  0.11095422  0.12836959  0.80491860    -0.24390
Co697      Co  0.06784772  0.10668337  0.79190812     0.74070
C698        C  0.47758473  0.16105501  0.80808014     0.44230
N699        N  0.98984005  0.06717863  0.83251473     0.02630
N700        N  0.02198682  0.12976418  0.80262283     0.02740
N701        N  0.14784394  0.04240759  0.78213763    -0.45240
H702        H  0.18738455  0.08739742  0.84602237     0.08500
N703        N  0.13788882  0.11381771  0.81309746     0.03020
N704        N  0.02649090  0.08492301  0.77880007     0.02760
C705        C  0.48452199  0.09224020  0.76004752     0.44370
N706        N  0.01664478  0.05251305  0.84080156    -0.23840
C707        C  0.16568202  0.50625222  0.81103934    -0.04760
N708        N  0.11155142  0.05104962  0.85913739    -0.44950
N709        N  0.02230668  0.09323547  0.76443613    -0.45170
C710        C  0.15341317  0.47804151  0.81620187     0.44140
N711        N  0.13587613  0.06572727  0.78969325     0.03010
N712        N  0.01954293  0.00962310  0.81650522    -0.23870
N713        N  0.13308892  0.06799715  0.83737868    -0.24360
N714        N  0.99311780  0.02437693  0.80794037     0.02650
H715        H  0.02571049  0.46394938  0.82213332     0.08540
H716        H  0.43357352  0.07973953  0.77555436     0.08580
N717        N  0.11020117  0.08123637  0.78137053    -0.24410
N718        N  0.99430587  0.11484734  0.80941466    -0.24020
N719        N  0.10813634  0.00864020  0.82069160     0.03020
C720        C  0.15492553  0.15863566  0.81553341     0.44410
C721        C  0.00600174  0.05167446  0.85544444    -0.05270
N722        N  0.99368452  0.07570059  0.78456494    -0.24020
H723        H  0.43766645  0.12604471  0.81775049     0.08560
N724        N  0.16534424  0.13109257  0.81948442    -0.45240
H725        H  0.02087839  0.03963032  0.86469116     0.08550
C726        C  0.47550672  0.47961572  0.80556063     0.44250
C727        C  0.15955748  0.07704094  0.84815929    -0.04770
Co728      Co  0.06218633  0.03058683  0.83071315     0.73820
N729        N  0.46038240  0.07624568  0.84078376    -0.44960
C730        C  0.13061072  0.04310915  0.76786850     0.44510
N731        N  0.11792060  0.48079146  0.82245692    -0.44950
Co732      Co  0.99209191  0.07016765  0.80862517     0.73890
C733        C  0.46475476  0.08037824  0.77359376    -0.05280
C734        C  0.11922751  0.15692400  0.80571704    -0.04840
N735        N  0.13609014  0.02380212  0.81438707    -0.24370
N736        N  0.01241387  0.15781723  0.80119327    -0.45130
H737        H  0.08541634  0.07496806  0.75823634     0.08520
C738        C  0.01082747  0.48114166  0.81562947    -0.05250
Cl739      Cl  0.06456894  0.06906736  0.81134749    -0.48250
C740        C  0.46902222  0.06764974  0.85536550     0.44280
H741        H  0.19377598  0.51308548  0.80689473     0.08490
N742        N  0.46567704  0.50720601  0.80149256    -0.44960
C743        C  0.11035620  0.44920372  0.64847943     0.44130
N744        N  0.15594280  0.43322977  0.66418900     0.03020
C745        C  0.17199491  0.47094566  0.74159030    -0.04860
H746        H  0.18417275  0.05382993  0.70628856     0.08510
C747        C  0.31433333  0.00503376  0.68959162    -0.05210
Co748      Co  0.13789231  0.44942142  0.69668647     0.74180
N749        N  0.17336657  0.00767232  0.70274199    -0.24390
Co750      Co  0.21802699  0.48291674  0.71466485     0.74070
C751        C  0.30377016  0.03408470  0.69486848     0.44230
N752        N  0.27559765  0.44374947  0.66971832     0.02630
N753        N  0.26207504  0.00309094  0.70281975     0.02740
N754        N  0.11356819  0.45874073  0.73049181    -0.45240
H755        H  0.07710826  0.47063365  0.66786096     0.08500
N756        N  0.14341765  0.49374253  0.69584134     0.03020
N757        N  0.25829036  0.45498838  0.72615968     0.02760
C758        C  0.27187709  0.41856952  0.74157291     0.44370
N759        N  0.24522642  0.43096363  0.66237492    -0.23840
C760        C  0.11058155  0.38526968  0.70267984    -0.04760
N761        N  0.14371158  0.43301758  0.64945648    -0.44950
N762        N  0.25155262  0.44372005  0.73989684    -0.45170
C763        C  0.12144803  0.35662499  0.69691414     0.44140
N764        N  0.14246805  0.45389516  0.72091603     0.03010
N765        N  0.24838319  0.38431315  0.68485958    -0.23870
N766        N  0.13173254  0.44778344  0.67283192    -0.24360
N767        N  0.27774010  0.39775106  0.69226833     0.02650
H768        H  0.24141794  0.33955380  0.67724117     0.08540
H769        H  0.30698501  0.39581360  0.72337722     0.08580
N770        N  0.17589570  0.46365630  0.72700215    -0.24410
N771        N  0.28680989  0.48731350  0.69512802    -0.24020
N772        N  0.16035591  0.38848355  0.68802115     0.03020
C773        C  0.12850458  0.03830788  0.69232936     0.44410
C774        C  0.25050949  0.43223726  0.64717802    -0.05270
N775        N  0.28147623  0.43824304  0.71818016    -0.24020
H776        H  0.33921926  0.99825172  0.68313331     0.08560
N777        N  0.11617185  0.01107215  0.68967403    -0.45240
H778        H  0.23176652  0.42220100  0.63830946     0.08550
C779        C  0.29719446  0.35367302  0.69146299     0.44250
C780        C  0.10221161  0.45874796  0.66389101    -0.04770
Co781      Co  0.20218514  0.40884194  0.67456957     0.73820
N782        N  0.30213817  0.45341710  0.66021663    -0.44960
C783        C  0.13057925  0.46917576  0.74391970     0.44510
N784        N  0.15198836  0.36028642  0.68776535    -0.44950
Co785      Co  0.28137486  0.44208418  0.69388919     0.73890
C786        C  0.29217241  0.41514782  0.72715284    -0.05280
C787        C  0.16622872  0.03651659  0.70127020    -0.04840
N788        N  0.13638240  0.40369319  0.69662049    -0.24370
N789        N  0.27136129  0.03121266  0.70315706    -0.45130
H790        H  0.19332070  0.48408473  0.74809954     0.08520
C791        C  0.25807998  0.35589075  0.68369936    -0.05250
Cl792      Cl  0.20967201  0.44584513  0.69473128    -0.48250
C793        C  0.28797147  0.44735573  0.64582526     0.44280
H794        H  0.08582871  0.39144379  0.70936881     0.08490
N795        N  0.30756142  0.38044836  0.69606204    -0.44960
C796        C  0.24554618  0.31834594  0.86333165     0.44130
N797        N  0.28199690  0.33282141  0.84521716     0.03020
C798        C  0.25784546  0.32110239  0.76718893    -0.04860
H799        H  0.27263217  0.21573897  0.79874742     0.08510
C800        C  0.41351524  0.25660436  0.81182004    -0.05210
Co801      Co  0.24319219  0.32113048  0.81428543     0.74180
N802        N  0.26586023  0.26127800  0.80440892    -0.24390
Co803      Co  0.30522188  0.28365526  0.79149926     0.74070
C804        C  0.39964853  0.22840747  0.80670263     0.44230
N805        N  0.39504542  0.31974116  0.83223349     0.02630
N806        N  0.35427385  0.25999399  0.80140375     0.02740
N807        N  0.22505075  0.34988633  0.78285038    -0.45240
H808        H  0.19938700  0.29912026  0.84614030     0.08500
N809        N  0.24108802  0.27550969  0.81286244     0.03020
N810        N  0.34243727  0.30653304  0.77865240     0.02760
C811        C  0.37518520  0.30717587  0.75818908     0.44370
N812        N  0.37040943  0.33321240  0.84118720    -0.23840
C813        C  0.21525436  0.38366936  0.81265879    -0.04760
N814        N  0.27865277  0.33342903  0.86038597    -0.44950
N815        N  0.34053869  0.30184271  0.76384049    -0.45170
C816        C  0.22965900  0.41140853  0.81807421     0.44140
N817        N  0.23811275  0.32605179  0.79025639     0.03010
N818        N  0.36143071  0.37885004  0.81814964    -0.23870
N819        N  0.25208705  0.31913037  0.83811604    -0.24360
N820        N  0.38489192  0.36493403  0.80882387     0.02650
H821        H  0.35660056  0.42419745  0.82453773     0.08540
H822        H  0.43166115  0.32046444  0.77249896     0.08580
N823        N  0.25979716  0.30973222  0.78152275    -0.24410
N824        N  0.38401987  0.27467954  0.80795852    -0.24020
N825        N  0.27433105  0.37975744  0.82280672     0.03020
C826        C  0.22530547  0.23049282  0.81517171     0.44410
C827        C  0.38477568  0.33194807  0.85577404    -0.05270
N828        N  0.37650206  0.31667072  0.78393497    -0.24020
H829        H  0.44242581  0.26300674  0.81629926     0.08560
N830        N  0.21575116  0.25787154  0.81940197    -0.45240
H831        H  0.37227255  0.34259486  0.86552450     0.08550
C832        C  0.40128559  0.40986846  0.80691427     0.44250
C833        C  0.22776351  0.30914425  0.84861603    -0.04770
Co834      Co  0.32231875  0.35654172  0.83212459     0.73820
N835        N  0.42649530  0.30944758  0.84003494    -0.44960
C836        C  0.23643868  0.34847302  0.76812726     0.44510
N837        N  0.26616684  0.40782362  0.82458920    -0.44950
Co838      Co  0.38591863  0.31933404  0.80821129     0.73890
C839        C  0.40016897  0.31697385  0.77175020    -0.05280
C840        C  0.25814249  0.23265417  0.80507085    -0.04840
N841        N  0.24472721  0.36542574  0.81611148    -0.24370
N842        N  0.36297948  0.23180116  0.80004979    -0.45130
H843        H  0.27475596  0.31433544  0.75766136     0.08520
C844        C  0.36971074  0.40745149  0.81765364    -0.05250
Cl845      Cl  0.31431413  0.31999193  0.81169797    -0.48250
C846        C  0.42161969  0.31597856  0.85495284     0.44280
H847        H  0.18639538  0.37767562  0.80795521     0.08490
N848        N  0.40976380  0.38267790  0.80214078    -0.44960
C849        C  0.24686814  0.37429497  0.75910912    -0.11600
C850        C  0.25868699  0.39464717  0.75139090    -0.13160
C851        C  0.11633926  0.49380756  0.75242599    -0.11600
C852        C  0.12007628  0.01663861  0.75945049    -0.13160
C853        C  0.44865906  0.45531967  0.80459623    -0.11600
C854        C  0.42658624  0.43471344  0.80507575    -0.13160
C855        C  0.18030501  0.18370081  0.81716795    -0.11600
C856        C  0.20092848  0.20515823  0.81705232    -0.13160
C857        C  0.20497231  0.43609846  0.81949904    -0.11600
C858        C  0.18013084  0.45459482  0.81883691    -0.13160
C859        C  0.45050063  0.18500192  0.80590931    -0.11600
C860        C  0.42530002  0.20362661  0.80543586    -0.13160
C861        C  0.37693179  0.26274733  0.74033709    -0.11600
C862        C  0.38335556  0.28594939  0.74668533    -0.13160
C863        C  0.07878970  0.30848690  0.69665704    -0.11600
C864        C  0.09821425  0.33049269  0.69707827    -0.13160
C865        C  0.32650660  0.06060576  0.69375936    -0.11600
C866        C  0.34576679  0.08275011  0.69293791    -0.13160
C867        C  0.35294356  0.31397741  0.69104279    -0.11600
C868        C  0.32589647  0.33093808  0.69089618    -0.13160
C869        C  0.07509092  0.07947692  0.68922352    -0.11600
C870        C  0.10159787  0.06213958  0.69054237    -0.13160
C871        C  0.97395363  0.11711708  0.75070786    -0.11600
C872        C  0.98562579  0.13919727  0.74466439    -0.13160
C873        C  0.09536823  0.20907849  0.62367141    -0.11600
C874        C  0.07309398  0.20564758  0.63389544    -0.13160
C875        C  0.32652902  0.21057045  0.61813260    -0.11600
C876        C  0.35017601  0.20823788  0.62880294    -0.13160
C877        C  0.31101938  0.44906982  0.63230093    -0.11600
C878        C  0.33131783  0.45025034  0.62122869    -0.13160
C879        C  0.05972140  0.45283558  0.62444701    -0.11600
C880        C  0.08329940  0.45104808  0.63524791    -0.13160
C881        C  0.06225556  0.34592988  0.56275778    -0.11600
C882        C  0.08254918  0.32431000  0.56274412    -0.13160
C883        C  0.32916507  0.07226552  0.55815767    -0.11600
C884        C  0.30794898  0.09355536  0.55781781    -0.13160
C885        C  0.08075830  0.09396947  0.56961437    -0.11600
C886        C  0.05596829  0.07545939  0.56978833    -0.13160
C887        C  0.33203899  0.34194149  0.55383864    -0.11600
C888        C  0.30622855  0.32373936  0.55343239    -0.13160
C889        C  0.25625566  0.26644280  0.50654818    -0.11600
C890        C  0.24637592  0.29015238  0.50150056    -0.13160
C891        C  0.36685958  0.38875712  0.49577103    -0.11600
C892        C  0.35327940  0.40970700  0.50239291    -0.13160
C893        C  0.98109934  0.04056380  0.50211266    -0.11600
C894        C  0.98732141  0.01827060  0.50945490    -0.13160
C895        C  0.44797955  0.22236306  0.44432839    -0.11600
C896        C  0.46929118  0.20134883  0.44493638    -0.13160
C897        C  0.19190323  0.46889018  0.44490190    -0.11600
C898        C  0.21352334  0.44813386  0.44523029    -0.13160
C899        C  0.44039689  0.45208008  0.44027107    -0.11600
C900        C  0.46552191  0.47054220  0.44077921    -0.13160
C901        C  0.19763155  0.19836622  0.44383607    -0.11600
C902        C  0.22234447  0.21716390  0.44382191    -0.13160
C903        C  0.12462756  0.15344579  0.50794392    -0.11600
C904        C  0.13531411  0.13199123  0.50104784    -0.13160
C905        C  0.41910508  0.06548710  0.87773600    -0.11600
C906        C  0.44114426  0.06706886  0.86728456    -0.13160
C907        C  0.19198627  0.05896345  0.88703087    -0.11600
C908        C  0.16885166  0.06190604  0.87627984    -0.13160
C909        C  0.20474306  0.31964054  0.88865143    -0.11600
C910        C  0.22517909  0.31944858  0.87757698    -0.13160
C911        C  0.45222119  0.31444416  0.86690616    -0.11600
C912        C  0.47610478  0.31466989  0.87760717    -0.13160
C913        C  0.46361140  0.42935031  0.93965625    -0.11600
C914        C  0.44437527  0.45151751  0.93966910    -0.13160
C915        C  0.19242923  0.19932256  0.94882624    -0.11600
C916        C  0.21335208  0.17805775  0.94838213    -0.13160
C917        C  0.43695271  0.18172835  0.93176101    -0.11600
C918        C  0.46297355  0.19941135  0.93222379    -0.13160
C919        C  0.19118537  0.42989760  0.95175768    -0.11600
C920        C  0.21751838  0.44767475  0.95142949    -0.13160
C921        C  0.25974253  0.01580613  0.00171443    -0.11600
C922        C  0.26724894  0.49136749  0.00628470    -0.13160
C923        C  0.15989898  0.35798073  0.00610788    -0.11600
C924        C  0.15015495  0.38021364  0.01255425    -0.13160
C925        C  0.36386985  0.14437351  0.99959083    -0.11600
C926        C  0.37484254  0.12268907  0.99288327    -0.13160
C927        C  0.08009557  0.05312705  0.06421405    -0.11600
C928        C  0.06094988  0.07532477  0.06424177    -0.13160
C929        C  0.30984779  0.32617192  0.05871541    -0.11600
C930        C  0.33038746  0.30471711  0.05795794    -0.13160
C931        C  0.33343246  0.07412234  0.05371614    -0.11600
C932        C  0.30696526  0.05647291  0.05407254    -0.13160
C933        C  0.06082524  0.30495958  0.07270138    -0.11600
C934        C  0.08669457  0.32274077  0.07330006    -0.13160
C935        C  0.01399909  0.24219249  0.00653323    -0.11600
C936        C  0.00792581  0.26261590  0.99773181    -0.13160
C937        C  0.05195892  0.18740104  0.12552670    -0.11600
C938        C  0.07738525  0.18853284  0.13554017    -0.13160
C939        C  0.30442598  0.18595829  0.12971766    -0.11600
C940        C  0.32368361  0.18522531  0.11827948    -0.13160
C941        C  0.32572893  0.44895270  0.12058389    -0.11600
C942        C  0.34813169  0.44759651  0.13164403    -0.13160
C943        C  0.07437246  0.44416064  0.13609551    -0.11600
C944        C  0.09768523  0.44408427  0.12605697    -0.13160
C945        C  0.07475261  0.05530104  0.20156684    -0.11600
C946        C  0.09476475  0.07723383  0.20132122    -0.13160
C947        C  0.32125167  0.30663651  0.18949388    -0.11600
C948        C  0.34161338  0.32827175  0.18985619    -0.13160
C949        C  0.32001385  0.07642333  0.19136874    -0.11600
C950        C  0.34508993  0.05804040  0.19156852    -0.13160
C951        C  0.06690873  0.32474782  0.19465487    -0.11600
C952        C  0.09335528  0.30738074  0.19450860    -0.13160
C953        C  0.44015978  0.32297048  0.36927849    -0.11600
C954        C  0.42063287  0.32468413  0.38041267    -0.13160
C955        C  0.20942728  0.32197099  0.38365540    -0.11600
C956        C  0.18439367  0.31968213  0.37353754    -0.13160
C957        C  0.11822860  0.28581101  0.24954887    -0.11600
C958        C  0.11296617  0.26282661  0.24268800    -0.13160
C959        C  0.03944867  0.34263117  0.24609310    -0.11600
C960        C  0.05202480  0.36547682  0.24099348    -0.13160
C961        C  0.46432680  0.07511947  0.38281977    -0.11600
C962        C  0.44144120  0.07013351  0.37210508    -0.13160
C963        C  0.18538606  0.07777626  0.38390835    -0.11600
C964        C  0.20702600  0.07536547  0.37336250    -0.13160
C965        C  0.26761666  0.14250305  0.24846522    -0.11600
C966        C  0.25851874  0.12119711  0.25587105    -0.13160
C967        C  0.45063216  0.20275485  0.31006328    -0.11600
C968        C  0.43132977  0.18059833  0.30941453    -0.13160
C969        C  0.17708802  0.43456014  0.31535518    -0.11600
C970        C  0.19588504  0.45693297  0.31490959    -0.13160
C971        C  0.21027796  0.19053487  0.31852897    -0.11600
C972        C  0.18566206  0.20929783  0.31967523    -0.13160
C973        C  0.41504384  0.44567717  0.31106960    -0.11600
C974        C  0.44008131  0.42689240  0.31086410    -0.13160
C975        C  0.40849880  0.99345088  0.24912201    -0.11600
C976        C  0.40967244  0.01646141  0.25603855    -0.13160
C977        C  0.24800078  0.59697809  0.26569187     0.44130
N978        N  0.26512977  0.56178049  0.28118790     0.03020
C979        C  0.27161157  0.58607057  0.35967631    -0.04860
H980        H  0.29310791  0.67547103  0.33038065     0.08510
C981        C  0.41774853  0.62520538  0.30478748    -0.05210
Co982      Co  0.24258885  0.57546425  0.31322397     0.74180
N983        N  0.28055257  0.63189845  0.32206956    -0.24390
Co984      Co  0.32380141  0.60546290  0.33248388     0.74070
C985        C  0.40780794  0.65449816  0.31006062     0.44230
N986        N  0.38207565  0.55792302  0.28676697     0.02630
N987        N  0.36756894  0.62384488  0.31928212     0.02740
N988        N  0.21930573  0.56666106  0.34629023    -0.45240
H989        H  0.21308685  0.61941857  0.28411071     0.08500
N990        N  0.24954960  0.62038125  0.31475860     0.03020
N991        N  0.36727768  0.57958586  0.34319122     0.02760
C992        C  0.41301283  0.56610610  0.35948794     0.44370
N993        N  0.34826004  0.54979162  0.28022073    -0.23840
C994        C  0.20800414  0.51285074  0.31823785    -0.04760
N995        N  0.27026248  0.57265485  0.26725525    -0.44950
N996        N  0.37976368  0.58205862  0.35778202    -0.45170
C997        C  0.21815039  0.98346500  0.31326141     0.44140
N998        N  0.24769743  0.57402122  0.33711658     0.03010
N999        N  0.34660952  0.00518688  0.30379462    -0.23870
N1000       N  0.24183510  0.57831330  0.28922810    -0.24360
N1001       N  0.37745355  0.51689571  0.31129785     0.02650
H1002       H  0.33331717  0.96068297  0.29712269     0.08540
H1003       H  0.44675224  0.54264292  0.34079709     0.08580
N1004       N  0.27856099  0.58576437  0.34459677    -0.24410
N1005       N  0.39108843  0.60759222  0.31101646    -0.24020
N1006       N  0.25907306  0.51388133  0.30432353     0.03020
C1007       C  0.23549803  0.66579788  0.31644381     0.44410
C1008       C  0.35314773  0.54162145  0.26578392    -0.05270
N1009       N  0.39125878  0.56375869  0.33504035    -0.24020
H1010       H  0.44204740  0.61820668  0.29806514     0.08560
N1011       N  0.22158975  0.63980936  0.31151715    -0.45240
H1012       H  0.33155809  0.52906315  0.25908432     0.08550
C1013       C  0.38998997  0.97107336  0.31166086     0.44250
C1014       C  0.22884008  0.60053247  0.28024598    -0.04770
Co1015     Co  0.30407754  0.53235967  0.29234394     0.73820
N1016       N  0.41146077  0.55168884  0.27767028    -0.44960
C1017       C  0.23255176  0.57307064  0.36069204     0.44510
N1018       N  0.24976475  0.98581221  0.30454511    -0.44950
Co1019     Co  0.38611894  0.56172353  0.31102066     0.73890
C1020       C  0.42096947  0.55416615  0.34441073    -0.05280
C1021       C  0.27443370  0.66068964  0.32368144    -0.04840
N1022       N  0.23515313  0.53021877  0.31213610    -0.24370
N1023       N  0.37691838  0.65187599  0.31912054    -0.45130
H1024       H  0.29007295  0.59626488  0.36858124     0.08520
C1025       C  0.35199910  0.97606844  0.30340681    -0.05250
Cl1026     Cl  0.31437830  0.56866483  0.31244296    -0.48250
C1027       C  0.39510331  0.54151146  0.26412445     0.44280
H1028       H  0.18402336  0.51996800  0.32509555     0.08490
N1029       N  0.40414910  0.99739918  0.31591331    -0.44960
C1030       C  0.47243863  0.90641813  0.31107894     0.44130
N1031       N  0.02131522  0.88044460  0.31933546     0.03020
C1032       C  0.13239267  0.78486924  0.27687625    -0.04860
H1033       H  0.54200803  0.78030883  0.25897141     0.08510
C1034       C  0.49015080  0.74117136  0.32612170    -0.05210
Co1035     Co  0.06487247  0.85335950  0.29369297     0.74180
N1036       N  0.03032766  0.80274831  0.28001561    -0.24390
Co1037     Co  0.06718631  0.77934940  0.29631510     0.74070
C1038       C  0.47459139  0.72861943  0.31168162     0.44230
N1039       N  0.01686258  0.80828850  0.34497894     0.02630
N1040       N  0.02062130  0.75872691  0.30683377     0.02740
N1041       N  0.11470889  0.82858811  0.26721341    -0.45240
H1042       H  0.48540726  0.89710418  0.28578980     0.08500
N1043       N  0.02141681  0.83039093  0.28222269     0.03020
N1044       N  0.10628306  0.75678427  0.31100819     0.02760
C1045       C  0.15391737  0.73004568  0.31955765     0.44370
N1046       N  0.01843503  0.83705354  0.34427522    -0.23840
C1047       C  0.13646691  0.89448698  0.30108461    -0.04760
N1048       N  0.49223019  0.89715051  0.32394461    -0.44950
N1049       N  0.13548893  0.74006504  0.30661208    -0.45170
C1050       C  0.15325546  0.90850292  0.31492146     0.44140
N1051       N  0.10680115  0.82699073  0.28207541     0.03010
N1052       N  0.10411160  0.83583316  0.34678619    -0.23870
N1053       N  0.02214146  0.87846963  0.30424098    -0.24360
N1054       N  0.10290830  0.80711075  0.34808305     0.02650
H1055       H  0.14270279  0.86873408  0.35683110     0.08540
H1056       H  0.13874844  0.73812535  0.34476025     0.08580
N1057       N  0.11308417  0.80019616  0.28705390    -0.24410
N1058       N  0.01863539  0.75948508  0.32199569    -0.24020
N1059       N  0.10739740  0.87930727  0.32125021     0.03020
C1060       C  0.51753169  0.82702647  0.25752519     0.44410
C1061       C  0.48843774  0.84812078  0.35185330    -0.05270
N1062       N  0.10422741  0.75812255  0.32606170    -0.24020
H1063       H  0.48319927  0.73581222  0.33780763     0.08560
N1064       N  0.00963981  0.84389516  0.26949264    -0.45240
H1065       H  0.48262365  0.87104903  0.35363465     0.08550
C1066       C  0.15261412  0.82015764  0.36222561     0.44250
C1067       C  0.49229607  0.89438783  0.29796522    -0.04770
Co1068     Co  0.06297656  0.85868855  0.33322029     0.73820
N1069       N  0.48727988  0.79878131  0.35302216    -0.44960
C1070       C  0.13057292  0.80246596  0.26316019     0.44510
N1071       N  0.13336734  0.89848789  0.32694002    -0.44950
Co1072     Co  0.06037331  0.78278183  0.33565099     0.73890
C1073       C  0.13316092  0.74160635  0.33255907    -0.05280
C1074       C  0.52894917  0.79871038  0.26458345    -0.04840
N1075       N  0.10831484  0.87683143  0.30612410    -0.24370
N1076       N  0.49535113  0.74002691  0.30025995    -0.45130
H1077       H  0.13215688  0.76123363  0.27684558     0.08520
C1078       C  0.13452390  0.84605090  0.35545007    -0.05250
Cl1079     Cl  0.06370652  0.81856107  0.31483521    -0.48250
C1080       C  0.46765186  0.82274379  0.35733853     0.44280
H1081       H  0.14221221  0.89868896  0.28915265     0.08490
N1082       N  0.13155572  0.79674271  0.35737849    -0.44960
C1083       C  0.04866598  0.89671186  0.23808170     0.44130
N1084       N  0.50377814  0.92278317  0.22643007     0.03020
C1085       C  0.01102470  0.96108485  0.14910377    -0.04860
H1086       H  0.99658411  0.54679024  0.18499355     0.08510
C1087       C  0.35969310  0.50589723  0.19849156    -0.05210
Co1088     Co  0.03066834  0.93892721  0.19510355     0.74180
N1089       N  0.00395665  0.50070623  0.18926514    -0.24390
Co1090     Co  0.45865840  0.98118836  0.17568563     0.74070
C1091       C  0.37169125  0.53420555  0.19332619     0.44230
N1092       N  0.39155391  0.94500754  0.21845472     0.02630
N1093       N  0.41506790  0.50315036  0.18719701     0.02740
N1094       N  0.05693887  0.93457854  0.16253125    -0.45240
H1095       H  0.09145803  0.90756484  0.21929429     0.08500
N1096       N  0.03146597  0.98521038  0.19692412     0.03020
N1097       N  0.41344861  0.95925161  0.16324921     0.02760
C1098       C  0.37214095  0.94553650  0.14551378     0.44370
N1099       N  0.41957407  0.92995943  0.22582681    -0.23840
C1100       C  0.05122562  0.87634358  0.18749248    -0.04760
N1101       N  0.01193121  0.90664428  0.23868401    -0.44950
N1102       N  0.40565417  0.96076728  0.14821774    -0.45170
C1103       C  0.03942887  0.84818955  0.19305336     0.44140
N1104       N  0.02904465  0.94390382  0.17145210     0.03010
N1105       N  0.41195378  0.88326788  0.20198561    -0.23870
N1106       N  0.03519630  0.92925262  0.21878271    -0.24360
N1107       N  0.38415014  0.89819867  0.19453854     0.02650
H1108       H  0.42028216  0.83726301  0.20643675     0.08540
H1109       H  0.33177516  0.92412880  0.16278225     0.08580
N1110       N  0.00192676  0.95956870  0.16395987    -0.24410
N1111       N  0.38802201  0.48808404  0.19411461    -0.24020
N1112       N  0.49939104  0.88023350  0.20109193     0.03020
C1113       C  0.04918804  0.53004852  0.19996829     0.44410
C1114       C  0.42634921  0.94189678  0.23983990    -0.05270
N1115       N  0.38622145  0.94463088  0.17050603    -0.24020
H1116       H  0.33233778  0.49925727  0.20334744     0.08560
N1117       N  0.05971232  0.50206449  0.20319142    -0.45240
H1118       H  0.45104072  0.93693703  0.24764334     0.08550
C1119       C  0.36654461  0.85353823  0.19190414     0.44250
C1120       C  0.06495118  0.91287692  0.22513762    -0.04770
Co1121     Co  0.45814388  0.90379842  0.21388716     0.73820
N1122       N  0.38002638  0.96765664  0.22662096    -0.44960
C1123       C  0.04727017  0.94417864  0.14827259     0.44510
N1124       N  0.50760455  0.85193077  0.20170188    -0.44950
Co1125     Co  0.38658712  0.94353803  0.19442888     0.73890
C1126       C  0.35885631  0.93510687  0.16018531    -0.05280
C1127       C  0.01264303  0.52911920  0.19064097    -0.04840
N1128       N  0.02535823  0.89472672  0.19317235    -0.24370
N1129       N  0.40573928  0.53119478  0.18602480    -0.45130
H1130       H  0.49564247  0.97390999  0.14029085     0.08520
C1131       C  0.40340894  0.85476282  0.20101026    -0.05250
Cl1132     Cl  0.45868573  0.94195118  0.19463874    -0.48250
C1133       C  0.40045583  0.96712655  0.24027125     0.44280
H1134       H  0.07809913  0.88252179  0.18212709     0.08490
N1135       N  0.35582880  0.88126959  0.18847053    -0.44960
C1136       C  0.12274907  0.73333951  0.23797008     0.44130
N1137       N  0.16770397  0.71199460  0.22536328     0.03020
C1138       C  0.14420485  0.67304332  0.14820722    -0.04860
H1139       H  0.16820829  0.58663920  0.18402476     0.08510
C1140       C  0.30676229  0.62884746  0.19765472    -0.05210
Co1141     Co  0.13425181  0.69393778  0.19430310     0.74180
N1142       N  0.16090861  0.63268527  0.18822499    -0.24390
Co1143     Co  0.20276505  0.65280998  0.17455442     0.74070
C1144       C  0.29381035  0.60038343  0.19266593     0.44230
N1145       N  0.27841198  0.68974993  0.21729866     0.02630
N1146       N  0.24915115  0.63119331  0.18608865     0.02740
N1147       N  0.10064604  0.69853240  0.16181414    -0.45240
H1148       H  0.07573176  0.71906587  0.21981060     0.08500
N1149       N  0.13507918  0.64779767  0.19603452     0.03020
N1150       N  0.24527158  0.67481343  0.16179458     0.02760
C1151       C  0.28375448  0.68740892  0.14395419     0.44370
N1152       N  0.25225492  0.70507572  0.22462604    -0.23840
C1153       C  0.10896337  0.75608070  0.18714231    -0.04760
N1154       N  0.16115351  0.72778944  0.23762576    -0.44950
N1155       N  0.25042792  0.67257618  0.14678299    -0.45170
C1156       C  0.12114876  0.78447230  0.19261605     0.44140
N1157       N  0.13072722  0.68932694  0.17066512     0.03010
N1158       N  0.25324260  0.75126529  0.20056913    -0.23870
N1159       N  0.13505866  0.70313324  0.21805854    -0.24360
N1160       N  0.27972198  0.73654009  0.19319432     0.02650
H1161       H  0.24553641  0.79710514  0.20524738     0.08540
H1162       H  0.32733947  0.70934158  0.16132808     0.08580
N1163       N  0.15653603  0.67424757  0.16305723    -0.24410
N1164       N  0.27748578  0.64649371  0.19301263    -0.24020
N1165       N  0.16513455  0.75342726  0.19999764     0.03020
C1166       C  0.11914780  0.60279297  0.19924592     0.44410
C1167       C  0.24932001  0.69377810  0.23881424    -0.05270
N1168       N  0.27397491  0.68962742  0.16904006    -0.24020
H1169       H  0.33498387  0.63563565  0.20265699     0.08560
N1170       N  0.10892669  0.63063585  0.20250618    -0.45240
H1171       H  0.22656434  0.69906064  0.24664389     0.08550
C1172       C  0.29635976  0.78137729  0.19078811     0.44250
C1173       C  0.10490425  0.71626489  0.22508685    -0.04770
Co1174     Co  0.21024075  0.73070982  0.21266016     0.73820
N1175       N  0.29200231  0.66735822  0.22568299    -0.44960
C1176       C  0.10746143  0.68948886  0.14751155     0.44510
N1177       N  0.15575529  0.78148193  0.20082173    -0.44950
Co1178     Co  0.27828075  0.69107168  0.19317078     0.73890
C1179       C  0.29961605  0.69848414  0.15868920    -0.05280
C1180       C  0.15315510  0.60415287  0.18967582    -0.04840
N1181       N  0.13740394  0.73831948  0.19241627    -0.24370
N1182       N  0.25828285  0.60312528  0.18519964    -0.45130
H1183       H  0.15785772  0.66061896  0.13931483     0.08520
C1184       C  0.26128980  0.77981036  0.19970584    -0.05250
Cl1185     Cl  0.20626176  0.69215000  0.19360489    -0.48250
C1186       C  0.27536647  0.66851717  0.23949167     0.44280
H1187       H  0.08074923  0.74925518  0.18214507     0.08490
N1188       N  0.30672734  0.75373395  0.18734455    -0.44960
C1189       C  0.34860388  0.68591595  0.10514847     0.44130
N1190       N  0.39303560  0.70127292  0.09029004     0.03020
C1191       C  0.41273503  0.67276095  0.01264480    -0.04860
H1192       H  0.41715862  0.58498702  0.04207693     0.08510
C1193       C  0.04941143  0.63027618  0.06945357    -0.05210
Co1194     Co  0.37421589  0.68662618  0.05692117     0.74180
N1195       N  0.40924381  0.62956246  0.04966548    -0.24390
Co1196     Co  0.45534195  0.65575533  0.04075240     0.74070
C1197       C  0.03820268  0.60180052  0.06324941     0.44230
N1198       N  0.01127477  0.69062912  0.08833182     0.02630
N1199       N  0.49804002  0.63390126  0.05401640     0.02740
N1200       N  0.35237825  0.67773325  0.02168563    -0.45240
H1201       H  0.31326644  0.66478748  0.08486767     0.08500
N1202       N  0.37966614  0.64220796  0.05650931     0.03020
N1203       N  0.49773581  0.68363629  0.03175455     0.02760
C1204       C  0.01987133  0.71808544  0.01738666     0.44370
N1205       N  0.48153220  0.70346794  0.09496312    -0.23840
C1206       C  0.34511995  0.75076937  0.05141231    -0.04760
N1207       N  0.38209220  0.70159605  0.10474274    -0.44950
N1208       N  0.99549412  0.69485605  0.01764230    -0.45170
C1209       C  0.35520934  0.77919665  0.05801490     0.44140
N1210       N  0.37985228  0.68420193  0.03259072     0.03010
N1211       N  0.48415979  0.75109232  0.07345442    -0.23870
N1212       N  0.36818455  0.68689171  0.08097234    -0.24360
N1213       N  0.01407366  0.73828191  0.06706167     0.02650
H1214       H  0.47638656  0.79482378  0.08214944     0.08540
H1215       H  0.05448001  0.73845131  0.03777622     0.08580
N1216       N  0.41471846  0.67792221  0.02761906    -0.24410
N1217       N  0.02275413  0.64875874  0.06305247    -0.24020
N1218       N  0.39589513  0.74730046  0.06729910     0.03020
C1219       C  0.36154217  0.59770014  0.05495132     0.44410
C1220       C  0.48805178  0.70192123  0.11027823    -0.05270
N1221       N  0.02131983  0.69881746  0.04110103    -0.24020
H1222       H  0.07410699  0.63621941  0.07707751     0.08560
N1223       N  0.35080161  0.62421870  0.05963204    -0.45240
H1224       H  0.47040360  0.71224046  0.11878187     0.08550
C1225       C  0.03292530  0.78217123  0.07006850     0.44250
C1226       C  0.33902239  0.67630295  0.08937915    -0.04770
Co1227     Co  0.43836101  0.72615745  0.08169255     0.73820
N1228       N  0.03839535  0.68065020  0.09830920    -0.44960
C1229       C  0.37151186  0.67039093  0.00869913     0.44510
N1230       N  0.38645642  0.77532280  0.06791476    -0.44950
Co1231     Co  0.01810451  0.69389129  0.06488809     0.73890
C1232       C  0.03722171  0.72061106  0.03299879    -0.05280
C1233       C  0.40027545  0.60094155  0.04814675    -0.04840
N1234       N  0.37188763  0.73234660  0.05779449    -0.24370
N1235       N  0.50653878  0.60570039  0.05356893    -0.45130
H1236       H  0.43599357  0.66164897  0.00684057     0.08520
C1237       C  0.49341461  0.77929276  0.07585181    -0.05250
Cl1238     Cl  0.44639516  0.69050336  0.06117892    -0.48250
C1239       C  0.02548083  0.68640381  0.11234479     0.44280
H1240       H  0.32009051  0.74461569  0.04401514     0.08490
N1241       N  0.04396484  0.75597402  0.06510153    -0.44960
C1242       C  0.29780942  0.94853504  0.10780870     0.44130
N1243       N  0.25267093  0.93073405  0.09276254     0.03020
C1244       C  0.22409869  0.95711639  0.01499498    -0.04860
H1245       H  0.22134008  0.54454568  0.04220404     0.08510
C1246       C  0.09276475  0.49808282  0.06928812    -0.05210
Co1247     Co  0.26725482  0.94467089  0.05976759     0.74180
N1248       N  0.23031910  0.50098694  0.05140183    -0.24390
Co1249     Co  0.18395761  0.97364568  0.04223585     0.74070
C1250       C  0.10262095  0.52666008  0.06321142     0.44230
N1251       N  0.13399487  0.93901219  0.08930293     0.02630
N1252       N  0.14218160  0.49499686  0.05458956     0.02740
N1253       N  0.28521862  0.95416361  0.02553469    -0.45240
H1254       H  0.32955390  0.96944109  0.08777950     0.08500
N1255       N  0.26103429  0.98904402  0.05887335     0.03020
N1256       N  0.14240945  0.94471002  0.03284385     0.02760
C1257       C  0.13192303  0.90511305  0.01976743     0.44370
N1258       N  0.16490059  0.92680133  0.09656163    -0.23840
C1259       C  0.29562791  0.88099614  0.05412167    -0.04760
N1260       N  0.26541678  0.93163048  0.10734491    -0.44950
N1261       N  0.14893368  0.93146419  0.01965323    -0.45170
C1262       C  0.28667792  0.85229042  0.06022444     0.44140
N1263       N  0.25902854  0.94614399  0.03561909     0.03010
N1264       N  0.16156651  0.87833185  0.07547127    -0.23870
N1265       N  0.27559257  0.94532401  0.08360472    -0.24360
N1266       N  0.13030011  0.89057275  0.06870618     0.02650
H1267       H  0.17210947  0.83481733  0.08443009     0.08540
H1268       H  0.10034145  0.88410295  0.03926699     0.08580
N1269       N  0.22351099  0.95150640  0.02991122    -0.24410
N1270       N  0.11893699  0.97986107  0.06328628    -0.24020
N1271       N  0.24867048  0.88377200  0.07017902     0.03020
C1272       C  0.27884695  0.53336028  0.05617712     0.44410
C1273       C  0.15996411  0.92870712  0.11178067    -0.05270
N1274       N  0.12150480  0.92842459  0.04190412    -0.24020
H1275       H  0.06941548  0.49194656  0.07669993     0.08560
N1276       N  0.29043019  0.50733267  0.06170707    -0.45240
H1277       H  0.17891984  0.91901791  0.12070492     0.08550
C1278       C  0.11314977  0.84648869  0.07177686     0.44250
C1279       C  0.30504394  0.95741357  0.09214098    -0.04770
Co1280     Co  0.20742824  0.90444174  0.08401753     0.73820
N1281       N  0.10761342  0.94885093  0.09872102    -0.44960
C1282       C  0.26466283  0.96234316  0.01239089     0.44510
N1283       N  0.25775806  0.85560969  0.07024610    -0.44950
Co1284     Co  0.12518484  0.93480241  0.06571844     0.73890
C1285       C  0.11238129  0.90348926  0.03431469    -0.05280
C1286       C  0.23897685  0.52939863  0.04911423    -0.04840
N1287       N  0.27067160  0.89911304  0.06087709    -0.24370
N1288       N  0.13314209  0.52311795  0.05400191    -0.45130
H1289       H  0.19968267  0.96775806  0.00879372     0.08520
C1290       C  0.15356958  0.85000217  0.07791602    -0.05250
Cl1291     Cl  0.19619336  0.93959759  0.06323993    -0.48250
C1292       C  0.12220522  0.94370723  0.11306415     0.44280
H1293       H  0.31833610  0.88739070  0.04647031     0.08490
N1294       N  0.10050711  0.87243776  0.06662402    -0.44960
C1295       C  0.00218865  0.78676827  0.98689315     0.44130
N1296       N  0.02479841  0.82125436  0.97266777     0.03020
C1297       C  0.03864605  0.80059968  0.89418604    -0.04860
H1298       H  0.04813992  0.70900173  0.92323796     0.08510
C1299       C  0.17749305  0.75327865  0.95491379    -0.05210
Co1300     Co  0.00600654  0.81064236  0.93930632     0.74180
N1301       N  0.04005694  0.75311069  0.93137572    -0.24390
Co1302     Co  0.08665126  0.77781246  0.92349737     0.74070
C1303       C  0.16763559  0.72480991  0.94836333     0.44230
N1304       N  0.14242886  0.81954513  0.97297729     0.02630
N1305       N  0.12800316  0.75671109  0.93840224     0.02740
N1306       N  0.48709551  0.82210247  0.90526847    -0.45240
H1307       H  0.46848732  0.76634091  0.96632365     0.08500
N1308       N  0.00981709  0.76621109  0.93738955     0.03020
N1309       N  0.13284157  0.80267306  0.91541218     0.02760
C1310       C  0.17844790  0.81850147  0.90127513     0.44370
N1311       N  0.10770661  0.82698459  0.97768328    -0.23840
C1312       C  0.47548974  0.87441604  0.93439999    -0.04760
N1313       N  0.02648782  0.81004156  0.98678378    -0.44950
N1314       N  0.14501835  0.80261036  0.90112831    -0.45170
C1315       C  0.48637526  0.90287197  0.94073544     0.44140
N1316       N  0.01393245  0.81318962  0.91571674     0.03010
N1317       N  0.11466583  0.87480322  0.95554827    -0.23870
N1318       N  0.00164793  0.80604420  0.96315474    -0.24360
N1319       N  0.14466679  0.86181002  0.94916426     0.02650
H1320       H  0.10657211  0.91962612  0.96271139     0.08540
H1321       H  0.21193141  0.83952381  0.92198904     0.08580
N1322       N  0.04430056  0.80017608  0.90957529    -0.24410
N1323       N  0.15142521  0.77168712  0.94810249    -0.24020
N1324       N  0.02596054  0.87068095  0.95029009     0.03020
C1325       C  0.99087014  0.72228998  0.93466114     0.44410
C1326       C  0.10933267  0.83187290  0.99268537    -0.05270
N1327       N  0.15691378  0.81704761  0.92504079    -0.24020
H1328       H  0.20194992  0.75944630  0.96260269     0.08560
N1329       N  0.97971637  0.74868711  0.93927631    -0.45240
H1330       H  0.08641063  0.84345223  0.99844759     0.08550
C1331       C  0.16311465  0.90626392  0.95060366     0.44250
C1332       C  0.48547499  0.78423751  0.97117968    -0.04770
Co1333     Co  0.06780202  0.84893859  0.96404744     0.73820
N1334       N  0.16979274  0.82450253  0.98412491    -0.44960
C1335       C  0.00095256  0.81547370  0.89143228     0.44510
N1336       N  0.01745186  0.89888223  0.95069278    -0.44950
Co1337     Co  0.14946083  0.81729268  0.94886005     0.73890
C1338       C  0.18665975  0.82792288  0.91710725    -0.05280
C1339       C  0.03076932  0.72484396  0.92917821    -0.04840
N1340       N  0.00175211  0.85586589  0.94100697    -0.24370
N1341       N  0.13722672  0.72862748  0.93805602    -0.45130
H1342       H  0.05690154  0.78971883  0.88607943     0.08520
C1343       C  0.12379483  0.90341691  0.95697208    -0.05250
Cl1344     Cl  0.07756477  0.81380551  0.94379539    -0.48250
C1345       C  0.15056991  0.83239916  0.99696751     0.44280
H1346       H  0.45112678  0.86851121  0.92660398     0.08490
N1347       N  0.17396064  0.87956275  0.94624353    -0.44960
C1348       C  0.39381459  0.59839050  0.98529580     0.44130
N1349       N  0.38393972  0.55872878  0.97210954     0.03020
C1350       C  0.35856452  0.57813029  0.89344774    -0.04860
H1351       H  0.35038517  0.67036643  0.92175334     0.08510
C1352       C  0.22888905  0.62355961  0.95320552    -0.05210
Co1353     Co  0.39816450  0.56971820  0.93893988     0.74180
N1354       N  0.36130236  0.62653425  0.93021294    -0.24390
Co1355     Co  0.31445750  0.60070237  0.92217889     0.74070
C1356       C  0.23727131  0.65233171  0.94705126     0.44230
N1357       N  0.26751159  0.55802900  0.97100093     0.02630
N1358       N  0.27482502  0.62106935  0.93671627     0.02740
N1359       N  0.41253895  0.55764032  0.90520738    -0.45240
H1360       H  0.42282922  0.62041030  0.96547745     0.08500
N1361       N  0.39309373  0.61396900  0.93636731     0.03020
N1362       N  0.26836459  0.57478778  0.91383838     0.02760
C1363       C  0.22145357  0.55798393  0.89927560     0.44370
N1364       N  0.30320031  0.55147008  0.97609519    -0.23840
C1365       C  0.43054753  0.50651840  0.93466039    -0.04760
N1366       N  0.37809295  0.57160914  0.98546573    -0.44950
N1367       N  0.25411744  0.57458973  0.89944046    -0.45170
C1368       C  0.42145466  0.97779514  0.94077854     0.44140
N1369       N  0.38706707  0.56634499  0.91530968     0.03010
N1370       N  0.29431567  0.50315818  0.95414098    -0.23870
N1371       N  0.40358111  0.57557383  0.96286699    -0.24360
N1372       N  0.26293364  0.51555958  0.94735783     0.02650
H1373       H  0.30412248  0.95900249  0.96238009     0.08540
H1374       H  0.19143764  0.53665734  0.91961168     0.08580
N1375       N  0.35535712  0.57880837  0.90877500    -0.24410
N1376       N  0.25353140  0.60558272  0.94619297    -0.24020
N1377       N  0.38217512  0.50914812  0.94988322     0.03020
C1378       C  0.41042319  0.65802533  0.93337058     0.44410
C1379       C  0.30416380  0.54663280  0.99109828    -0.05270
N1380       N  0.24620310  0.56003218  0.92319940    -0.24020
H1381       H  0.20650573  0.61700501  0.96096394     0.08560
N1382       N  0.42324599  0.63186953  0.93811352    -0.45240
H1383       H  0.32864922  0.53565054  0.99707546     0.08550
C1384       C  0.24534734  0.97106634  0.94950135     0.44250
C1385       C  0.41212400  0.60063602  0.97048865    -0.04770
Co1386     Co  0.34158939  0.52998543  0.96299663     0.73820
N1387       N  0.24217138  0.55201853  0.98178106    -0.44960
C1388       C  0.39623766  0.56375794  0.89118840     0.44510
N1389       N  0.39159630  0.98109424  0.95032194    -0.44950
Co1390     Co  0.25686275  0.56003565  0.94693356     0.73890
C1391       C  0.21573295  0.54853149  0.91498164    -0.05280
C1392       C  0.36937467  0.65489830  0.92785784    -0.04840
N1393       N  0.40461157  0.52453876  0.94097992    -0.24370
N1394       N  0.26550725  0.64916640  0.93674134    -0.45130
H1395       H  0.33872562  0.58857299  0.88507629     0.08520
C1396       C  0.28583277  0.97460162  0.95604706    -0.05250
Cl1397     Cl  0.32768315  0.56493224  0.94258221    -0.48250
C1398       C  0.26379299  0.54393760  0.99471471     0.44280
H1399       H  0.45342965  0.51289846  0.92708566     0.08490
N1400       N  0.23331344  0.99742628  0.94461265    -0.44960
C1401       C  0.16270403  0.58029594  0.39738486     0.44130
N1402       N  0.12347509  0.59799247  0.41356824     0.03020
C1403       C  0.11966250  0.58105666  0.49115000    -0.04860
H1404       H  0.11315491  0.97913930  0.45818970     0.08510
C1405       C  0.47996893  0.52358714  0.43670600    -0.05210
Co1406     Co  0.15128774  0.58407417  0.44582304     0.74180
N1407       N  0.12258879  0.52464127  0.45313334    -0.24390
Co1408     Co  0.07952165  0.54686474  0.46406284     0.74070
C1409       C  0.49209570  0.99468673  0.44129507     0.44230
N1410       N  0.00641631  0.58723898  0.42005576     0.02630
N1411       N  0.03419064  0.52516063  0.45090612     0.02740
N1412       N  0.16217349  0.60832707  0.47845005    -0.45240
H1413       H  0.20237727  0.55946173  0.41639306     0.08500
N1414       N  0.15080830  0.53875730  0.44643798     0.03020
N1415       N  0.03804390  0.56902701  0.47540462     0.02760
C1416       C  0.49486616  0.56369853  0.49245921     0.44370
N1417       N  0.03436807  0.60042127  0.41258311    -0.23840
C1418       C  0.18137815  0.64605394  0.45012674    -0.04760
N1419       N  0.13030841  0.59714265  0.39866177    -0.44950
N1420       N  0.03252652  0.56052947  0.48952168    -0.45170
C1421       C  0.17051494  0.67454288  0.44437707     0.44140
N1422       N  0.14855891  0.58643330  0.46974202     0.03010
N1423       N  0.03739813  0.64464738  0.43654355    -0.23870
N1424       N  0.15029500  0.58341702  0.42196760    -0.24360
N1425       N  0.01006609  0.63103097  0.44428764     0.02650
H1426       H  0.04600794  0.68977142  0.43050319     0.08540
H1427       H  0.44573338  0.57876818  0.47490864     0.08580
N1428       N  0.12204247  0.57093317  0.47671609    -0.24410
N1429       N  0.00734697  0.54088173  0.44320265    -0.24020
N1430       N  0.12606752  0.64405481  0.43677153     0.03020
C1431       C  0.16669929  0.99383648  0.44493249     0.44410
C1432       C  0.02571565  0.59813997  0.39737977    -0.05270
N1433       N  0.00641707  0.57990823  0.46829271    -0.24020
H1434       H  0.45329440  0.53069804  0.43056646     0.08560
N1435       N  0.17838452  0.52109084  0.44151422    -0.45240
H1436       H  0.04248043  0.60749986  0.38831465     0.08550
C1437       C  0.49449290  0.67623457  0.44515576     0.44250
C1438       C  0.17622294  0.57147350  0.41272128    -0.04770
Co1439     Co  0.08019526  0.62230665  0.42455288     0.73820
N1440       N  0.47866934  0.57581740  0.41073664    -0.44960
C1441       C  0.14531589  0.60636725  0.49220729     0.44510
N1442       N  0.13637087  0.67194092  0.43583776    -0.44950
Co1443     Co  0.00683115  0.58532828  0.44401678     0.73890
C1444       C  0.47670088  0.57659128  0.47811104    -0.05280
C1445       C  0.13003901  0.99599337  0.45279160    -0.04840
N1446       N  0.15242030  0.62867477  0.44483693    -0.24370
N1447       N  0.02540997  0.99691517  0.45042100    -0.45130
H1448       H  0.09777590  0.57507124  0.49915993     0.08520
C1449       C  0.03000333  0.67333017  0.43659968    -0.05250
Cl1450     Cl  0.07935913  0.58467373  0.44454647    -0.48250
C1451       C  0.48899390  0.58155383  0.39629861     0.44280
H1452       H  0.20821918  0.63903036  0.45617595     0.08490
N1453       N  0.48317531  0.64922348  0.44931304    -0.44960
C1454       C  0.40210975  0.82834949  0.39469773     0.44130
N1455       N  0.36784211  0.84834561  0.41172097     0.03020
C1456       C  0.37263610  0.83517906  0.48943338    -0.04860
H1457       H  0.37040426  0.73150939  0.45861284     0.08510
C1458       C  0.23313882  0.77032300  0.43824770    -0.05210
Co1459     Co  0.40037703  0.83701097  0.44354421     0.74180
N1460       N  0.37657824  0.77684332  0.45247272    -0.24390
Co1461     Co  0.33381733  0.79870200  0.46358523     0.74070
C1462       C  0.24739232  0.74220258  0.44336387     0.44230
N1463       N  0.25426453  0.83410059  0.42005559     0.02630
N1464       N  0.28838402  0.77479723  0.45160470     0.02740
N1465       N  0.40419271  0.86692294  0.47496082    -0.45240
H1466       H  0.44616372  0.80916835  0.41282299     0.08500
N1467       N  0.40320249  0.79143440  0.44511374     0.03020
N1468       N  0.29299684  0.82199633  0.47483916     0.02760
C1469       C  0.25317338  0.81619263  0.49297746     0.44370
N1470       N  0.28033753  0.84834656  0.41213709    -0.23840
C1471       C  0.42774947  0.89949914  0.44644214    -0.04760
N1472       N  0.37055943  0.84553242  0.39665666    -0.44950
N1473       N  0.29047046  0.81613356  0.48944274    -0.45170
C1474       C  0.41472646  0.92749976  0.44083043     0.44140
N1475       N  0.39831640  0.84189353  0.46746885     0.03010
N1476       N  0.28290875  0.89347918  0.43550862    -0.23870
N1477       N  0.39638442  0.83459546  0.41963379    -0.24360
N1478       N  0.25711430  0.87909430  0.44364337     0.02650
H1479       H  0.28886415  0.93886016  0.42947287     0.08540
H1480       H  0.20031815  0.82604996  0.47604253     0.08580
N1481       N  0.37646422  0.82403630  0.47528479    -0.24410
N1482       N  0.25999191  0.78900696  0.44391211    -0.24020
N1483       N  0.37118755  0.89578904  0.43410612     0.03020
C1484       C  0.42174616  0.74686932  0.44431929     0.44410
C1485       C  0.27092050  0.84530872  0.39708255    -0.05270
N1486       N  0.25945973  0.82986039  0.46807306    -0.24020
H1487       H  0.20549257  0.77608500  0.43238260     0.08560
N1488       N  0.43140995  0.77426602  0.44017773    -0.45240
H1489       H  0.28611595  0.85524852  0.38775006     0.08550
C1490       C  0.23967886  0.92375388  0.44491172     0.44250
C1491       C  0.41974076  0.82140855  0.40978713    -0.04770
Co1492     Co  0.32540232  0.87213953  0.42307277     0.73820
N1493       N  0.22685176  0.82127410  0.41116650    -0.44960
C1494       C  0.38780065  0.86457709  0.48881752     0.44510
N1495       N  0.37983649  0.92395690  0.43288074    -0.44950
Co1496     Co  0.25677666  0.83341772  0.44392765     0.73890
C1497       C  0.23173721  0.82601775  0.47861289    -0.05280
C1498       C  0.38570783  0.74845618  0.45261056    -0.04840
N1499       N  0.39920560  0.88132755  0.44173168    -0.24370
N1500       N  0.28131338  0.74628311  0.45191884    -0.45130
H1501       H  0.35409384  0.82695308  0.49812558     0.08520
C1502       C  0.27422888  0.92192933  0.43573838    -0.05250
Cl1503     Cl  0.32906044  0.83523797  0.44340366    -0.48250
C1504       C  0.23596707  0.82695366  0.39658511     0.44280
H1505       H  0.45534252  0.89333774  0.45222327     0.08490
N1506       N  0.23006951  0.89648385  0.44920550    -0.44960
C1507       C  0.35941564  0.93555970  0.51170424     0.44130
N1508       N  0.40265694  0.94677917  0.52947660     0.03020
C1509       C  0.39301702  0.96912034  0.60801252    -0.04860
H1510       H  0.40626263  0.56170032  0.57591181     0.08510
C1511       C  0.04259897  0.52418944  0.56106317    -0.05210
Co1512     Co  0.37211230  0.95595417  0.56075585     0.74180
N1513       N  0.39896158  0.51617972  0.57003170    -0.24390
Co1514     Co  0.44446744  0.49439004  0.58272833     0.74070
C1515       C  0.03022634  0.55130704  0.56757041     0.44230
N1516       N  0.01120317  0.96723501  0.53840022     0.02630
N1517       N  0.48764252  0.51887447  0.57240952     0.02740
N1518       N  0.34575050  0.94570991  0.59367081    -0.45240
H1519       H  0.31000824  0.94134531  0.52895975     0.08500
N1520       N  0.37194592  0.50196761  0.56145476     0.03020
N1521       N  0.49081170  0.97070073  0.59420499     0.02760
C1522       C  0.03432321  0.95444706  0.61073255     0.44370
N1523       N  0.48573031  0.95147035  0.53016682    -0.23840
C1524       C  0.34825930  0.89254482  0.56376698    -0.04760
N1525       N  0.39738559  0.93910896  0.51504783    -0.44950
N1526       N  0.50014370  0.96966861  0.60920503    -0.45170
C1527       C  0.35948243  0.86552657  0.55666415     0.44140
N1528       N  0.37348708  0.95627855  0.58494300     0.03010
N1529       N  0.49159530  0.90166226  0.55214716    -0.23870
N1530       N  0.36985314  0.95241035  0.53630302    -0.24360
N1531       N  0.01934357  0.91590858  0.56002985     0.02650
H1532       H  0.48365454  0.85621396  0.54624885     0.08540
H1533       H  0.07319778  0.93693875  0.59192267     0.08580
N1534       N  0.40126338  0.97025585  0.59308442    -0.24410
N1535       N  0.01469715  0.50540191  0.56470360    -0.24020
N1536       N  0.40264202  0.89825843  0.55179526     0.03020
C1537       C  0.35452816  0.54697546  0.55982121     0.44410
C1538       C  0.47983903  0.96439725  0.51633397    -0.05270
N1539       N  0.01776290  0.95785182  0.58599022    -0.24020
H1540       H  0.06981571  0.51876524  0.55573213     0.08560
N1541       N  0.34441185  0.51962104  0.55538597    -0.45240
H1542       H  0.45793305  0.95868318  0.50757263     0.08550
C1543       C  0.03718284  0.87116330  0.56132506     0.44250
C1544       C  0.34029742  0.94462045  0.52605827    -0.04770
Co1545     Co  0.44610548  0.92394885  0.54089281     0.73820
N1546       N  0.01997623  0.99193392  0.53128507    -0.44960
C1547       C  0.35650798  0.95263473  0.60835027     0.44510
N1548       N  0.39304302  0.87049726  0.54913601    -0.44950
Co1549     Co  0.01652661  0.96121700  0.56219220     0.73890
C1550       C  0.04618265  0.94691184  0.59543310    -0.05280
C1551       C  0.39032196  0.54476599  0.56962221    -0.04840
N1552       N  0.37601475  0.91144686  0.56000673    -0.24370
N1553       N  0.49641521  0.54674610  0.57481546    -0.45130
H1554       H  0.40912760  0.98020119  0.61728452     0.08520
C1555       C  0.50032678  0.87314837  0.55223768    -0.05250
Cl1556     Cl  0.44471409  0.95869702  0.56181234    -0.48250
C1557       C  0.00097017  0.99177953  0.51731073     0.44280
H1558       H  0.32081758  0.89817143  0.56887121     0.08490
N1559       N  0.04766316  0.89846231  0.56563328    -0.44960
C1560       C  0.26056970  0.73682188  0.51189072     0.44130
N1561       N  0.22493460  0.71619774  0.52823044     0.03020
C1562       C  0.25894564  0.69580925  0.60625341    -0.04860
H1563       H  0.23465416  0.60466053  0.57518645     0.08510
C1564       C  0.09311896  0.64522938  0.56092572    -0.05210
Co1565     Co  0.26552470  0.70965979  0.55913433     0.74180
N1566       N  0.23999473  0.64981819  0.56850616    -0.24390
Co1567     Co  0.19887722  0.67234529  0.58150515     0.74070
C1568       C  0.10651888  0.61770888  0.56712531     0.44230
N1569       N  0.11810449  0.70239881  0.53817907     0.02630
N1570       N  0.15171656  0.64915044  0.57152624     0.02740
N1571       N  0.30248951  0.71855467  0.59140509    -0.45240
H1572       H  0.31356134  0.73567170  0.52933908     0.08500
N1573       N  0.26498747  0.66370028  0.55976318     0.03020
N1574       N  0.15737739  0.69671401  0.59341498     0.02760
C1575       C  0.11905389  0.71217192  0.61056029     0.44370
N1576       N  0.14210863  0.71712688  0.52966109    -0.23840
C1577       C  0.29185519  0.77251525  0.56243642    -0.04760
N1578       N  0.22569170  0.72520288  0.51395187    -0.44950
N1579       N  0.15211074  0.69651592  0.60842822    -0.45170
C1580       C  0.27951587  0.79973745  0.55543885     0.44140
N1581       N  0.27145459  0.70907654  0.58310326     0.03010
N1582       N  0.14688009  0.76656509  0.55153294    -0.23870
N1583       N  0.26006104  0.71364848  0.53496772    -0.24360
N1584       N  0.12103814  0.75323189  0.55991599     0.02650
H1585       H  0.15539204  0.81168918  0.54531411     0.08540
H1586       H  0.07523948  0.73124676  0.59243825     0.08580
N1587       N  0.24581446  0.69542244  0.59150327    -0.24410
N1588       N  0.12276507  0.66338957  0.56428376    -0.24020
N1589       N  0.23507116  0.76737227  0.55012904     0.03020
C1590       C  0.28232954  0.61867231  0.55874189     0.44410
C1591       C  0.14052011  0.70555623  0.51544762    -0.05270
N1592       N  0.12863552  0.71056826  0.58568026    -0.24020
H1593       H  0.06449671  0.65130275  0.55600377     0.08560
N1594       N  0.29136402  0.64586222  0.55398971    -0.45240
H1595       H  0.15960159  0.71085870  0.50628702     0.08550
C1596       C  0.10620555  0.79851420  0.56129313     0.44250
C1597       C  0.28472965  0.72766870  0.52565537    -0.04770
Co1598     Co  0.18716764  0.74245495  0.53980835     0.73820
N1599       N  0.10280637  0.67943159  0.53076218    -0.44960
C1600       C  0.29619639  0.71140674  0.60612412     0.44510
N1601       N  0.24436029  0.79519750  0.54773079    -0.44950
Co1602     Co  0.12185043  0.70774301  0.56198640     0.73890
C1603       C  0.10328694  0.72121147  0.59554737    -0.05280
C1604       C  0.24867218  0.62124924  0.56847568    -0.04840
N1605       N  0.26304794  0.75394024  0.55846210    -0.24370
N1606       N  0.14269857  0.62141119  0.57389679    -0.45130
H1607       H  0.24565735  0.68449706  0.61563230     0.08520
C1608       C  0.13982324  0.79532956  0.55163746    -0.05250
Cl1609     Cl  0.19339985  0.70822574  0.56079235    -0.48250
C1610       C  0.11566623  0.67992439  0.51626924     0.44280
H1611       H  0.32012418  0.76663275  0.56775368     0.08490
N1612       N  0.09562883  0.77157622  0.56585586    -0.44960
C1613       C  0.37403039  0.70502492  0.64272604     0.44130
N1614       N  0.41320008  0.68557741  0.65975785     0.03020
C1615       C  0.41647030  0.72095600  0.73695190    -0.04860
H1616       H  0.43295671  0.80265057  0.70779031     0.08510
C1617       C  0.06695749  0.75360268  0.69094559    -0.05210
Co1618     Co  0.38883813  0.70199213  0.69137413     0.74180
N1619       N  0.42457903  0.75803928  0.70018700    -0.24390
Co1620     Co  0.46601926  0.73096825  0.71255728     0.74070
C1621       C  0.05553797  0.78234194  0.69635501     0.44230
N1622       N  0.03077231  0.69406897  0.66933736     0.02630
N1623       N  0.51221799  0.75134965  0.70253898     0.02740
N1624       N  0.36059293  0.72227135  0.72243887    -0.45240
H1625       H  0.33765072  0.72728082  0.66094224     0.08500
N1626       N  0.39660462  0.74591604  0.69130735     0.03020
N1627       N  0.50338497  0.70246325  0.72452313     0.02760
C1628       C  0.00743540  0.66335400  0.73836758     0.44370
N1629       N  0.50199811  0.68186542  0.66078459    -0.23840
C1630       C  0.35785893  0.63836537  0.69686909    -0.04760
N1631       N  0.40520801  0.68687891  0.64469150    -0.44950
N1632       N  0.99144929  0.68999211  0.73724983    -0.45170
C1633       C  0.36856261  0.60922315  0.69173253     0.44140
N1634       N  0.38782493  0.70690732  0.71545262     0.03010
N1635       N  0.49913843  0.63390053  0.68238121    -0.23390
N1636       N  0.38816937  0.70093866  0.66760893    -0.24360
N1637       N  0.02777944  0.64663685  0.69056294     0.02650
H1638       H  0.49282029  0.58981829  0.67364738     0.08540
H1639       H  0.04526326  0.64080296  0.72122421     0.08580
N1640       N  0.42166178  0.71011906  0.72305302    -0.24410
N1641       N  0.03819666  0.73580664  0.69536491    -0.24020
N1642       N  0.40988617  0.64008183  0.68328156     0.03020
C1643       C  0.38117032  0.79087003  0.69078768     0.44410
C1644       C  0.01019628  0.68515342  0.64591820    -0.05270
N1645       N  0.02705832  0.68545174  0.71696303    -0.24020
H1646       H  0.09299403  0.74705333  0.68511967     0.08560
N1647       N  0.37006949  0.76448555  0.68574464    -0.45240
H1648       H  0.49299441  0.67663222  0.63617162     0.08550
C1649       C  0.04689110  0.60258388  0.68921827     0.44250
C1650       C  0.36236906  0.71401111  0.65780684    -0.04770
Co1651     Co  0.45570449  0.65970011  0.67121533     0.73820
N1652       N  0.05881001  0.70536291  0.66112911    -0.44960
C1653       C  0.37739377  0.73235004  0.73592163     0.44510
N1654       N  0.40073384  0.61193991  0.68327745    -0.44950
Co1655     Co  0.03200162  0.69078612  0.69316053     0.73890
C1656       C  0.03233239  0.66068923  0.72521256    -0.05280
C1657       C  0.41710371  0.78690521  0.70063701    -0.04840
N1658       N  0.38505632  0.65609891  0.69113343    -0.24370
N1659       N  0.02162178  0.77932591  0.70361493    -0.45130
H1660       H  0.44031209  0.73145594  0.74352977     0.08520
C1661       C  0.00865187  0.60550901  0.68084324    -0.05250
Cl1662     Cl  0.46055149  0.69582286  0.69180290    -0.48250
C1663       C  0.04755340  0.70096866  0.64631740     0.44280
H1664       H  0.33277869  0.64521946  0.70319722     0.08490
N1665       N  0.05701859  0.62892608  0.69451469    -0.44960
C1666       C  0.14493251  0.56608154  0.86250860     0.44130
N1667       N  0.10500473  0.55328603  0.84405729     0.03020
C1668       C  0.10695406  0.56943123  0.76718578    -0.04860
H1669       H  0.10334389  0.67407991  0.79955983     0.08510
C1670       C  0.46561313  0.63274327  0.81342350    -0.05210
Co1671     Co  0.13653329  0.56830664  0.81361929     0.74180
N1672       N  0.11095422  0.62836959  0.80491861    -0.24390
Co1673     Co  0.06784772  0.60668337  0.79190813     0.74070
C1674       C  0.47758474  0.66105501  0.80808015     0.44230
N1675       N  0.98984005  0.56717863  0.83251473     0.02630
N1676       N  0.02198682  0.62976418  0.80262283     0.02740
N1677       N  0.14784394  0.54240758  0.78213764    -0.45240
H1678       H  0.18738455  0.58739741  0.84602238     0.08500
N1679       N  0.13788882  0.61381771  0.81309747     0.03020
N1680       N  0.02649090  0.58492301  0.77880008     0.02760
C1681       C  0.48452199  0.59224020  0.76004752     0.44370
N1682       N  0.01664478  0.55251304  0.84080157    -0.23840
C1683       C  0.16568202  0.00625222  0.81103933    -0.04760
N1684       N  0.11155142  0.55104962  0.85913740    -0.44950
N1685       N  0.02230668  0.59323547  0.76443613    -0.45170
C1686       C  0.15341316  0.97804151  0.81620186     0.44140
N1687       N  0.13587613  0.56572726  0.78969326     0.03010
N1688       N  0.01954293  0.50962310  0.81650522    -0.23870
N1689       N  0.13308891  0.56799715  0.83737869    -0.24360
N1690       N  0.99311781  0.52437693  0.80794038     0.02650
H1691       H  0.02571049  0.96394938  0.82213331     0.08540
H1692       H  0.43357353  0.57973951  0.77555436     0.08580
N1693       N  0.11020117  0.58123637  0.78137053    -0.24410
N1694       N  0.99430587  0.61484734  0.80941467    -0.24020
N1695       N  0.10813635  0.50864020  0.82069161     0.03020
C1696       C  0.15492553  0.65863565  0.81553342     0.44410
C1697       C  0.00600174  0.55167445  0.85544445    -0.05270
N1698       N  0.99368452  0.57570058  0.78456494    -0.24020
H1699       H  0.43766645  0.62604471  0.81775050     0.08560
N1700       N  0.16534424  0.63109257  0.81948443    -0.45240
H1701       H  0.02087838  0.53963032  0.86469117     0.08550
C1702       C  0.47550672  0.97961572  0.80556062     0.44250
C1703       C  0.15955747  0.57704094  0.84815930    -0.04770
Co1704     Co  0.06218633  0.53058682  0.83071316     0.73820
N1705       N  0.46038239  0.57624567  0.84078376    -0.44960
C1706       C  0.13061072  0.54310915  0.76786851     0.44510
N1707       N  0.11792059  0.98079146  0.82245691    -0.44950
Co1708     Co  0.99209191  0.57016765  0.80862518     0.73890
C1709       C  0.46475477  0.58037823  0.77359377    -0.05280
C1710       C  0.11922752  0.65692399  0.80571705    -0.04840
N1711       N  0.13609014  0.52380212  0.81438708    -0.24370
N1712       N  0.01241388  0.65781723  0.80119329    -0.45130
H1713       H  0.08541634  0.57496806  0.75823635     0.08520
C1714       C  0.01082747  0.98114167  0.81562947    -0.05250
Cl1715     Cl  0.06456894  0.56906736  0.81134750    -0.48250
C1716       C  0.46902222  0.56764973  0.85536550     0.44280
H1717       H  0.19377598  0.01308548  0.80689472     0.08490
N1718       N  0.46567703  0.00720601  0.80149256    -0.44960
C1719       C  0.11035620  0.94920372  0.64847943     0.44130
N1720       N  0.15594280  0.93322977  0.66418900     0.03020
C1721       C  0.17199490  0.97094565  0.74159030    -0.04860
H1722       H  0.18417275  0.55382994  0.70628855     0.08510
C1723       C  0.31433333  0.50503377  0.68959162    -0.05210
Co1724     Co  0.13789231  0.94942141  0.69668647     0.74180
N1725       N  0.17336657  0.50767233  0.70274199    -0.24390
Co1726     Co  0.21802699  0.98291673  0.71466486     0.74070
C1727       C  0.30377016  0.53408471  0.69486847     0.44230
N1728       N  0.27559765  0.94374946  0.66971832     0.02630
N1729       N  0.26207504  0.50309095  0.70281975     0.02740
N1730       N  0.11356818  0.95874073  0.73049181    -0.45240
H1731       H  0.07710827  0.97063365  0.66786096     0.08500
N1732       N  0.14341765  0.99374253  0.69584134     0.03020
N1733       N  0.25829035  0.95498837  0.72615968     0.02760
C1734       C  0.27187708  0.91856950  0.74157291     0.44370
N1735       N  0.24522642  0.93096363  0.66237492    -0.23840
C1736       C  0.11058155  0.88526968  0.70267984    -0.04760
N1737       N  0.14371158  0.93301758  0.64945648    -0.44950
N1738       N  0.25155261  0.94372003  0.73989685    -0.45170
C1739       C  0.12144803  0.85662499  0.69691413     0.44140
N1740       N  0.14246805  0.95389515  0.72091603     0.03010
N1741       N  0.24838318  0.88431314  0.68485958    -0.23870
N1742       N  0.13173254  0.94778344  0.67283191    -0.24360
N1743       N  0.27774009  0.89775105  0.69226833     0.02650
H1744       H  0.24141793  0.83955380  0.67724117     0.08540
H1745       H  0.30698501  0.89581358  0.72337722     0.08580
N1746       N  0.17589570  0.96365628  0.72700215    -0.24410
N1747       N  0.28680989  0.98731349  0.69512803    -0.24020
N1748       N  0.16035590  0.88848355  0.68802115     0.03020
C1749       C  0.12850458  0.53830788  0.69232935     0.44410
C1750       C  0.25050949  0.93223726  0.64717802    -0.05270
N1751       N  0.28147623  0.93824303  0.71818016    -0.24020
H1752       H  0.33921926  0.49825173  0.68313330     0.08560
N1753       N  0.11617185  0.51107215  0.68967403    -0.45240
H1754       H  0.23176652  0.92220100  0.63830946     0.08550
C1755       C  0.29719445  0.85367301  0.69146299     0.44250
C1756       C  0.10221161  0.95874796  0.66389100    -0.04770
Co1757     Co  0.20218513  0.90884193  0.67456957     0.73820
N1758       N  0.30213817  0.95341709  0.66021663    -0.44960
C1759       C  0.13057923  0.96917576  0.74391970     0.44510
N1760       N  0.15198836  0.86028642  0.68776535    -0.44950
Co1761     Co  0.28137485  0.94208417  0.69388920     0.73890
C1762       C  0.29217241  0.91514780  0.72715284    -0.05280
C1763       C  0.16622872  0.53651659  0.70127020    -0.04840
N1764       N  0.13638239  0.90369319  0.69662049    -0.24370
N1765       N  0.27136129  0.53121267  0.70315705    -0.45130
H1766       H  0.19332069  0.98408471  0.74809954     0.08520
C1767       C  0.25807998  0.85589074  0.68369935    -0.05250
Cl1768     Cl  0.20967201  0.94584512  0.69473128    -0.48250
C1769       C  0.28797148  0.94735573  0.64582526     0.44280
H1770       H  0.08582870  0.89144378  0.70936881     0.08490
N1771       N  0.30756142  0.88044836  0.69606204    -0.44960
C1772       C  0.24554619  0.81834595  0.86333166     0.44130
N1773       N  0.28199690  0.83282141  0.84521716     0.03020
C1774       C  0.25784545  0.82110237  0.76718894    -0.04860
H1775       H  0.27263218  0.71573896  0.79874743     0.08510
C1776       C  0.41351526  0.75660437  0.81182004    -0.05210
Co1777     Co  0.24319219  0.82113047  0.81428544     0.74180
N1778       N  0.26586024  0.76127799  0.80440893    -0.24390
Co1779     Co  0.30522189  0.78365525  0.79149926     0.74070
C1780       C  0.39964855  0.72840747  0.80670264     0.44230
N1781       N  0.39504542  0.81974117  0.83223348     0.02630
N1782       N  0.35427386  0.75999399  0.80140376     0.02740
N1783       N  0.22505074  0.84988631  0.78285038    -0.45240
H1784       H  0.19938701  0.79912026  0.84614030     0.08500
N1785       N  0.24108804  0.77550968  0.81286244     0.03020
N1786       N  0.34243727  0.80653302  0.77865240     0.02760
C1787       C  0.37518518  0.80717589  0.75818907     0.44370
N1788       N  0.37040944  0.83321242  0.84118720    -0.23840
C1789       C  0.21525435  0.88366934  0.81265879    -0.04760
N1790       N  0.27865278  0.83342904  0.86038597    -0.44950
N1791       N  0.34053869  0.80184269  0.76384049    -0.45170
C1792       C  0.22965898  0.91140852  0.81807421     0.44140
N1793       N  0.23811275  0.82605177  0.79025639     0.03010
N1794       N  0.36143070  0.87885005  0.81814963    -0.23870
N1795       N  0.25208706  0.81913037  0.83811604    -0.24360
N1796       N  0.38489192  0.86493404  0.80882386     0.02650
H1797       H  0.35660055  0.92419745  0.82453772     0.08540
H1798       H  0.43166113  0.82046449  0.77249895     0.08580
N1799       N  0.25979716  0.80973220  0.78152275    -0.24410
N1800       N  0.38401989  0.77467954  0.80795852    -0.24020
N1801       N  0.27433104  0.87975744  0.82280672     0.03020
C1802       C  0.22530548  0.73049281  0.81517172     0.44410
C1803       C  0.38477569  0.83194809  0.85577403    -0.05270
N1804       N  0.37650206  0.81667072  0.78393496    -0.24020
H1805       H  0.44242583  0.76300675  0.81629926     0.08560
N1806       N  0.21575117  0.75787153  0.81940198    -0.45240
H1807       H  0.37227256  0.84259487  0.86552449     0.08550
C1808       C  0.40128557  0.90986847  0.80691426     0.44250
C1809       C  0.22776352  0.80914425  0.84861603    -0.04770
Co1810     Co  0.32231875  0.85654172  0.83212458     0.73820
N1811       N  0.42649531  0.80944760  0.84003494    -0.44960
C1812       C  0.23643867  0.84847299  0.76812726     0.44510
N1813       N  0.26616683  0.90782362  0.82458919    -0.44950
Co1814     Co  0.38591863  0.81933405  0.80821129     0.73890
C1815       C  0.40016895  0.81697388  0.77175019    -0.05280
C1816       C  0.25814250  0.73265416  0.80507086    -0.04840
N1817       N  0.24472721  0.86542573  0.81611148    -0.24370
N1818       N  0.36297949  0.73180116  0.80004980    -0.45130
H1819       H  0.27475596  0.81433541  0.75766136     0.08520
C1820       C  0.36971073  0.90745150  0.81765363    -0.05250
Cl1821     Cl  0.31431413  0.81999193  0.81169797    -0.48250
C1822       C  0.42161970  0.81597858  0.85495284     0.44280
H1823       H  0.18639537  0.87767560  0.80795521     0.08490
N1824       N  0.40976379  0.88267791  0.80214077    -0.44960
C1825       C  0.24686813  0.87429495  0.75910912    -0.11600
C1826       C  0.25868698  0.89464715  0.75139090    -0.13160
C1827       C  0.11633926  0.99380756  0.75242599    -0.11600
C1828       C  0.12007628  0.51663861  0.75945050    -0.13160
C1829       C  0.44865905  0.95531967  0.80459623    -0.11600
C1830       C  0.42658623  0.93471345  0.80507574    -0.13160
C1831       C  0.18030502  0.68370081  0.81716796    -0.11600
C1832       C  0.20092849  0.70515822  0.81705233    -0.13160
C1833       C  0.20497229  0.93609846  0.81949903    -0.11600
C1834       C  0.18013082  0.95459482  0.81883690    -0.13160
C1835       C  0.45050065  0.68500192  0.80590933    -0.11600
C1836       C  0.42530004  0.70362662  0.80543588    -0.13160
C1837       C  0.37693178  0.76274739  0.74033706    -0.11600
C1838       C  0.38335555  0.78594943  0.74668531    -0.13160
C1839       C  0.07878971  0.80848690  0.69665705    -0.11600
C1840       C  0.09821425  0.83049269  0.69707827    -0.13160
C1841       C  0.32650659  0.56060577  0.69375935    -0.11600
C1842       C  0.34576678  0.58275012  0.69293790    -0.13160
C1843       C  0.35294357  0.81397741  0.69104278    -0.11600
C1844       C  0.32589647  0.83093808  0.69089617    -0.13160
C1845       C  0.07509090  0.57947692  0.68922352    -0.11600
C1846       C  0.10159786  0.56213958  0.69054237    -0.13160
C1847       C  0.97395361  0.61711708  0.75070786    -0.11600
C1848       C  0.98562576  0.63919727  0.74466439    -0.13160
C1849       C  0.09536826  0.70907849  0.62367141    -0.11600
C1850       C  0.07309401  0.70564758  0.63389545    -0.13160
C1851       C  0.32652904  0.71057045  0.61813259    -0.11600
C1852       C  0.35017604  0.70823788  0.62880293    -0.13160
C1853       C  0.31101938  0.94906982  0.63230094    -0.11600
C1854       C  0.33131783  0.95025035  0.62122869    -0.13160
C1855       C  0.05972140  0.95283558  0.62444701    -0.11600
C1856       C  0.08329940  0.95104809  0.63524791    -0.13160
C1857       C  0.06225556  0.84592988  0.56275778    -0.11600
C1858       C  0.08254917  0.82430999  0.56274412    -0.13160
C1859       C  0.32916507  0.57226553  0.55815766    -0.11600
C1860       C  0.30794898  0.59355536  0.55781781    -0.13160
C1861       C  0.08075831  0.59396946  0.56961438    -0.11600
C1862       C  0.05596829  0.57545939  0.56978834    -0.13160
C1863       C  0.33203898  0.84194149  0.55383864    -0.11600
C1864       C  0.30622854  0.82373936  0.55343238    -0.13160
C1865       C  0.25625565  0.76644281  0.50654818    -0.11600
C1866       C  0.24637591  0.79015239  0.50150056    -0.13160
C1867       C  0.36685958  0.88875711  0.49577103    -0.11600
C1868       C  0.35327940  0.90970699  0.50239291    -0.13160
C1869       C  0.98109934  0.54056380  0.50211267    -0.11600
C1870       C  0.98732141  0.51827061  0.50945490    -0.13160
C1871       C  0.44797955  0.72236306  0.44432838    -0.11600
C1872       C  0.46929118  0.70134883  0.44493638    -0.13160
C1873       C  0.19190323  0.96889018  0.44490190    -0.11600
C1874       C  0.21352334  0.94813386  0.44523030    -0.13160
C1875       C  0.44039689  0.95208008  0.44027107    -0.11600
C1876       C  0.46552191  0.97054220  0.44077921    -0.13160
C1877       C  0.19763155  0.69836622  0.44383607    -0.11600
C1878       C  0.22234447  0.71716390  0.44382191    -0.13160
C1879       C  0.12462756  0.65344579  0.50794392    -0.11600
C1880       C  0.13531411  0.63199122  0.50104784    -0.13160
C1881       C  0.41910507  0.56548710  0.87773600    -0.11600
C1882       C  0.44114425  0.56706886  0.86728456    -0.13160
C1883       C  0.19198627  0.55896345  0.88703088    -0.11600
C1884       C  0.16885165  0.56190604  0.87627985    -0.13160
C1885       C  0.20474307  0.81964055  0.88865143    -0.11600
C1886       C  0.22517910  0.81944859  0.87757698    -0.13160
C1887       C  0.45222120  0.81444418  0.86690616    -0.11600
C1888       C  0.47610479  0.81466990  0.87760717    -0.13160
C1889       C  0.46361140  0.92935031  0.93965625    -0.11600
C1890       C  0.44437527  0.95151751  0.93966909    -0.13160
C1891       C  0.19242923  0.69932256  0.94882624    -0.11600
C1892       C  0.21335209  0.67805776  0.94838214    -0.13160
C1893       C  0.43695272  0.68172835  0.93176101    -0.11600
C1894       C  0.46297356  0.69941135  0.93222379    -0.13160
C1895       C  0.19118536  0.92989761  0.95175768    -0.11600
C1896       C  0.21751838  0.94767475  0.95142949    -0.13160
C1897       C  0.25974254  0.51580616  0.00171444    -0.11600
C1898       C  0.26724893  0.99136746  0.00628468    -0.13160
C1899       C  0.15989897  0.85798073  0.00610788    -0.11600
C1900       C  0.15015493  0.88021364  0.01255425    -0.13160
C1901       C  0.36386986  0.64437351  0.99959083    -0.11600
C1902       C  0.37484255  0.62268907  0.99288327    -0.13160
C1903       C  0.08009557  0.55312705  0.06421405    -0.11600
C1904       C  0.06094989  0.57532477  0.06424176    -0.13160
C1905       C  0.30984779  0.82617192  0.05871541    -0.11600
C1906       C  0.33038746  0.80471710  0.05795794    -0.13160
C1907       C  0.33343247  0.57412234  0.05371614    -0.11600
C1908       C  0.30696526  0.55647290  0.05407254    -0.13160
C1909       C  0.06082524  0.80495958  0.07270138    -0.11600
C1910       C  0.08669456  0.82274077  0.07330006    -0.13160
C1911       C  0.01399909  0.74219249  0.00653323    -0.11600
C1912       C  0.00792581  0.76261590  0.99773181    -0.13160
C1913       C  0.05195892  0.68740103  0.12552670    -0.11600
C1914       C  0.07738524  0.68853284  0.13554017    -0.13160
C1915       C  0.30442597  0.68595829  0.12971766    -0.11600
C1916       C  0.32368361  0.68522531  0.11827948    -0.13160
C1917       C  0.32572894  0.94895270  0.12058389    -0.11600
C1918       C  0.34813170  0.94759651  0.13164403    -0.13160
C1919       C  0.07437247  0.94416064  0.13609551    -0.11600
C1920       C  0.09768524  0.94408427  0.12605697    -0.13160
C1921       C  0.07475261  0.55530104  0.20156684    -0.11600
C1922       C  0.09476475  0.57723383  0.20132122    -0.13160
C1923       C  0.32125167  0.80663651  0.18949387    -0.11600
C1924       C  0.34161337  0.82827175  0.18985618    -0.13160
C1925       C  0.32001385  0.57642333  0.19136875    -0.11600
C1926       C  0.34508993  0.55804040  0.19156853    -0.13160
C1927       C  0.06690873  0.82474782  0.19465487    -0.11600
C1928       C  0.09335528  0.80738074  0.19450859    -0.13160
C1929       C  0.44015977  0.82297048  0.36927849    -0.11600
C1930       C  0.42063286  0.82468413  0.38041267    -0.13160
C1931       C  0.20942727  0.82197098  0.38365541    -0.11600
C1932       C  0.18439367  0.81968213  0.37353755    -0.13160
C1933       C  0.11822860  0.78581101  0.24954887    -0.11600
C1934       C  0.11296617  0.76282661  0.24268800    -0.13160
C1935       C  0.03944867  0.84263118  0.24609310    -0.11600
C1936       C  0.05202480  0.86547682  0.24099348    -0.13160
C1937       C  0.46432680  0.57511947  0.38281976    -0.11600
C1938       C  0.44144119  0.57013351  0.37210508    -0.13160
C1939       C  0.18538605  0.57777625  0.38390834    -0.11600
C1940       C  0.20702600  0.57536546  0.37336250    -0.13160
C1941       C  0.26761667  0.64250305  0.24846522    -0.11600
C1942       C  0.25851874  0.62119712  0.25587105    -0.13160
C1943       C  0.45063215  0.70275485  0.31006328    -0.11600
C1944       C  0.43132976  0.68059834  0.30941453    -0.13160
C1945       C  0.17708802  0.93456014  0.31535519    -0.11600
C1946       C  0.19588503  0.95693297  0.31490960    -0.13160
C1947       C  0.21027795  0.69053486  0.31852897    -0.11600
C1948       C  0.18566206  0.70929783  0.31967523    -0.13160
C1949       C  0.41504383  0.94567717  0.31106960    -0.11600
C1950       C  0.44008130  0.92689240  0.31086410    -0.13160
C1951       C  0.40849881  0.49345088  0.24912201    -0.11600
C1952       C  0.40967245  0.51646141  0.25603855    -0.13160
C1953       C  0.74800077  0.09697809  0.26569187     0.44130
N1954       N  0.76512977  0.06178049  0.28118790     0.03020
C1955       C  0.77161158  0.08607057  0.35967632    -0.04860
H1956       H  0.79310792  0.17547103  0.33038065     0.08510
C1957       C  0.91774853  0.12520538  0.30478748    -0.05210
Co1958     Co  0.74258885  0.07546425  0.31322398     0.74180
N1959       N  0.78055257  0.13189845  0.32206956    -0.24390
Co1960     Co  0.82380141  0.10546290  0.33248388     0.74070
C1961       C  0.90780794  0.15449816  0.31006062     0.44230
N1962       N  0.88207564  0.05792301  0.28676697     0.02630
N1963       N  0.86756894  0.12384488  0.31928212     0.02740
N1964       N  0.71930573  0.06666106  0.34629023    -0.45240
H1965       H  0.71308685  0.11941857  0.28411071     0.08500
N1966       N  0.74954960  0.12038125  0.31475860     0.03020
N1967       N  0.86727768  0.07958586  0.34319122     0.02760
C1968       C  0.91301283  0.06610610  0.35948794     0.44370
N1969       N  0.84826004  0.04979162  0.28022073    -0.23840
C1970       C  0.70800414  0.01285074  0.31823785    -0.04760
N1971       N  0.77026247  0.07265485  0.26725525    -0.44950
N1972       N  0.87976368  0.08205862  0.35778202    -0.45170
C1973       C  0.71815039  0.48346500  0.31326140     0.44140
N1974       N  0.74769743  0.07402122  0.33711658     0.03010
N1975       N  0.84660952  0.50518689  0.30379462    -0.23870
N1976       N  0.74183510  0.07831330  0.28922811    -0.24360
N1977       N  0.87745355  0.01689571  0.31129786     0.02650
H1978       H  0.83331717  0.46068297  0.29712269     0.08540
H1979       H  0.94675224  0.04264292  0.34079709     0.08580
N1980       N  0.77856099  0.08576437  0.34459678    -0.24410
N1981       N  0.89108843  0.10759222  0.31101646    -0.24020
N1982       N  0.75907306  0.01388133  0.30432353     0.03020
C1983       C  0.73549803  0.16579788  0.31644381     0.44410
C1984       C  0.85314772  0.04162145  0.26578392    -0.05270
N1985       N  0.89125878  0.06375869  0.33504035    -0.24020
H1986       H  0.94204740  0.11820668  0.29806514     0.08560
N1987       N  0.72158975  0.13980936  0.31151715    -0.45240
H1988       H  0.83155809  0.02906315  0.25908433     0.08550
C1989       C  0.88998998  0.47107337  0.31166086     0.44250
C1990       C  0.72884007  0.10053247  0.28024598    -0.04770
Co1991     Co  0.80407754  0.03235966  0.29234394     0.73820
N1992       N  0.91146076  0.05168883  0.27767028    -0.44960
C1993       C  0.73255177  0.07307065  0.36069205     0.44510
N1994       N  0.74976475  0.48581221  0.30454511    -0.44950
Co1995     Co  0.88611894  0.06172352  0.31102066     0.73890
C1996       C  0.92096947  0.05416615  0.34441073    -0.05280
C1997       C  0.77443370  0.16068964  0.32368144    -0.04840
N1998       N  0.73515313  0.03021877  0.31213611    -0.24370
N1999       N  0.87691839  0.15187598  0.31912054    -0.45130
H2000       H  0.79007295  0.09626488  0.36858124     0.08520
C2001       C  0.85199910  0.47606844  0.30340681    -0.05250
Cl2002     Cl  0.81437830  0.06866483  0.31244296    -0.48250
C2003       C  0.89510330  0.04151146  0.26412445     0.44280
H2004       H  0.68402336  0.01996800  0.32509555     0.08490
N2005       N  0.90414910  0.49739919  0.31591331    -0.44960
C2006       C  0.97243864  0.40641813  0.31107894     0.44130
N2007       N  0.52131522  0.38044460  0.31933546     0.03020
C2008       C  0.63239267  0.28486924  0.27687625    -0.04860
H2009       H  0.04200803  0.28030883  0.25897141     0.08510
C2010       C  0.99015081  0.24117136  0.32612170    -0.05210
Co2011     Co  0.56487247  0.35335950  0.29369297     0.74180
N2012       N  0.53032766  0.30274831  0.28001561    -0.24390
Co2013     Co  0.56718631  0.27934939  0.29631510     0.74070
C2014       C  0.97459140  0.22861942  0.31168162     0.44230
N2015       N  0.51686259  0.30828850  0.34497894     0.02630
N2016       N  0.52062131  0.25872690  0.30683377     0.02740
N2017       N  0.61470888  0.32858811  0.26721340    -0.45240
H2018       H  0.98540726  0.39710418  0.28578979     0.08500
N2019       N  0.52141681  0.33039093  0.28222269     0.03020
N2020       N  0.60628306  0.25678427  0.31100819     0.02760
C2021       C  0.65391737  0.23004568  0.31955764     0.44370
N2022       N  0.51843504  0.33705354  0.34427522    -0.23840
C2023       C  0.63646691  0.39448698  0.30108461    -0.04760
N2024       N  0.99223020  0.39715051  0.32394460    -0.44950
N2025       N  0.63548894  0.24006504  0.30661208    -0.45170
C2026       C  0.65325546  0.40850291  0.31492146     0.44140
N2027       N  0.60680115  0.32699073  0.28207541     0.03010
N2028       N  0.60411161  0.33583316  0.34678619    -0.23870
N2029       N  0.52214146  0.37846963  0.30424098    -0.24360
N2030       N  0.60290831  0.30711075  0.34808305     0.02650
H2031       H  0.64270280  0.36873408  0.35683109     0.08540
H2032       H  0.63874845  0.23812535  0.34476025     0.08580
N2033       N  0.61308417  0.30019616  0.28705390    -0.24410
N2034       N  0.51863539  0.25948508  0.32199569    -0.24020
N2035       N  0.60739740  0.37930727  0.32125021     0.03020
C2036       C  0.01753169  0.32702647  0.25752519     0.44410
C2037       C  0.98843775  0.34812078  0.35185330    -0.05270
N2038       N  0.60422741  0.25812255  0.32606169    -0.24020
H2039       H  0.98319928  0.23581222  0.33780763     0.08560
N2040       N  0.50963981  0.34389516  0.26949264    -0.45240
H2041       H  0.98262366  0.37104903  0.35363465     0.08550
C2042       C  0.65261412  0.32015764  0.36222560     0.44250
C2043       C  0.99229608  0.39438783  0.29796521    -0.04770
Co2044     Co  0.56297657  0.35868855  0.33322029     0.73820
N2045       N  0.98727989  0.29878131  0.35302216    -0.44960
C2046       C  0.63057292  0.30246596  0.26316019     0.44510
N2047       N  0.63336735  0.39848789  0.32694001    -0.44950
Co2048     Co  0.56037332  0.28278183  0.33565099     0.73890
C2049       C  0.63316093  0.24160635  0.33255907    -0.05280
C2050       C  0.02894917  0.29871037  0.26458345    -0.04840
N2051       N  0.60831484  0.37683143  0.30612410    -0.24370
N2052       N  0.99535113  0.24002690  0.30025995    -0.45130
H2053       H  0.63215688  0.26123363  0.27684557     0.08520
C2054       C  0.63452390  0.34605090  0.35545007    -0.05250
Cl2055     Cl  0.56370653  0.31856107  0.31483521    -0.48250
C2056       C  0.96765187  0.32274379  0.35733853     0.44280
H2057       H  0.64221221  0.39868896  0.28915265     0.08490
N2058       N  0.63155572  0.29674271  0.35737849    -0.44960
C2059       C  0.54866599  0.39671186  0.23808170     0.44130
N2060       N  0.00377815  0.42278317  0.22643007     0.03020
C2061       C  0.51102469  0.46108485  0.14910377    -0.04860
H2062       H  0.49658412  0.04679025  0.18499355     0.08510
C2063       C  0.85969310  0.00589723  0.19849156    -0.05210
Co2064     Co  0.53066834  0.43892721  0.19510355     0.74180
N2065       N  0.50395665  0.00070623  0.18926514    -0.24390
Co2066     Co  0.95865840  0.48118836  0.17568563     0.74070
C2067       C  0.87169124  0.03420555  0.19332618     0.44230
N2068       N  0.89155391  0.44500754  0.21845473     0.02630
N2069       N  0.91506790  0.00315036  0.18719701     0.02740
N2070       N  0.55693887  0.43457854  0.16253125    -0.45240
H2071       H  0.59145803  0.40756484  0.21929429     0.08500
N2072       N  0.53146597  0.48521038  0.19692412     0.03020
N2073       N  0.91344861  0.45925161  0.16324921     0.02760
C2074       C  0.87214095  0.44553650  0.14551378     0.44370
N2075       N  0.91957407  0.42995943  0.22582681    -0.23840
C2076       C  0.55122562  0.37634358  0.18749248    -0.04760
N2077       N  0.51193122  0.40664428  0.23868401    -0.44950
N2078       N  0.90565417  0.46076728  0.14821774    -0.45170
C2079       C  0.53942887  0.34818955  0.19305336     0.44140
N2080       N  0.52904464  0.44390382  0.17145210     0.03010
N2081       N  0.91195378  0.38326788  0.20198562    -0.23870
N2082       N  0.53519630  0.42925262  0.21878271    -0.24360
N2083       N  0.88415014  0.39819866  0.19453854     0.02650
H2084       H  0.92028217  0.33726301  0.20643675     0.08540
H2085       H  0.83177516  0.42412880  0.16278225     0.08580
N2086       N  0.50192676  0.45956870  0.16395987    -0.24410
N2087       N  0.88802201  0.98808404  0.19411461    -0.24020
N2088       N  0.99939104  0.38023349  0.20109193     0.03020
C2089       C  0.54918804  0.03004852  0.19996829     0.44410
C2090       C  0.92634922  0.44189679  0.23983991    -0.05270
N2091       N  0.88622145  0.44463088  0.17050603    -0.24020
H2092       H  0.83233778  0.99925727  0.20334744     0.08560
N2093       N  0.55971232  0.00206450  0.20319142    -0.45240
H2094       H  0.95104073  0.43693703  0.24764335     0.08550
C2095       C  0.86654461  0.35353823  0.19190414     0.44250
C2096       C  0.56495118  0.41287692  0.22513762    -0.04770
Co2097     Co  0.95814388  0.40379842  0.21388716     0.73820
N2098       N  0.88002638  0.46765664  0.22662096    -0.44960
C2099       C  0.54727016  0.44417863  0.14827259     0.44510
N2100       N  0.00760455  0.35193077  0.20170188    -0.44950
Co2101     Co  0.88658712  0.44353802  0.19442888     0.73890
C2102       C  0.85885631  0.43510687  0.16018532    -0.05280
C2103       C  0.51264303  0.02911920  0.19064097    -0.04840
N2104       N  0.52535823  0.39472672  0.19317235    -0.24370
N2105       N  0.90573928  0.03119478  0.18602480    -0.45130
H2106       H  0.99564246  0.47390999  0.14029086     0.08520
C2107       C  0.90340894  0.35476282  0.20101026    -0.05250
Cl2108     Cl  0.95868573  0.44195118  0.19463874    -0.48250
C2109       C  0.90045584  0.46712656  0.24027125     0.44280
H2110       H  0.57809913  0.38252179  0.18212710     0.08490
N2111       N  0.85582880  0.38126959  0.18847053    -0.44960
C2112       C  0.62274906  0.23333950  0.23797008     0.44130
N2113       N  0.66770397  0.21199460  0.22536328     0.03020
C2114       C  0.64420485  0.17304332  0.14820722    -0.04860
H2115       H  0.66820829  0.08663921  0.18402476     0.08510
C2116       C  0.80676228  0.12884746  0.19765472    -0.05210
Co2117     Co  0.63425181  0.19393778  0.19430310     0.74180
N2118       N  0.66090861  0.13268527  0.18822499    -0.24390
Co2119     Co  0.70276505  0.15280998  0.17455442     0.74070
C2120       C  0.79381035  0.10038342  0.19266593     0.44230
N2121       N  0.77841198  0.18974993  0.21729866     0.02630
N2122       N  0.74915115  0.13119331  0.18608865     0.02740
N2123       N  0.60064604  0.19853241  0.16181414    -0.45240
H2124       H  0.57573176  0.21906587  0.21981060     0.08500
N2125       N  0.63507918  0.14779767  0.19603452     0.03020
N2126       N  0.74527159  0.17481344  0.16179458     0.02760
C2127       C  0.78375449  0.18740893  0.14395419     0.44370
N2128       N  0.75225492  0.20507572  0.22462604    -0.23840
C2129       C  0.60896338  0.25608070  0.18714231    -0.04760
N2130       N  0.66115350  0.22778944  0.23762576    -0.44950
N2131       N  0.75042793  0.17257618  0.14678299    -0.45170
C2132       C  0.62114876  0.28447230  0.19261606     0.44140
N2133       N  0.63072723  0.18932694  0.17066512     0.03010
N2134       N  0.75324260  0.25126528  0.20056913    -0.23870
N2135       N  0.63505866  0.20313324  0.21805854    -0.24360
N2136       N  0.77972198  0.23654009  0.19319432     0.02650
H2137       H  0.74553642  0.29710514  0.20524738     0.08540
H2138       H  0.82733947  0.20934158  0.16132808     0.08580
N2139       N  0.65653604  0.17424757  0.16305723    -0.24410
N2140       N  0.77748578  0.14649371  0.19301263    -0.24020
N2141       N  0.66513455  0.25342726  0.19999764     0.03020
C2142       C  0.61914780  0.10279297  0.19924591     0.44410
C2143       C  0.74932001  0.19377809  0.23881424    -0.05270
N2144       N  0.77397491  0.18962742  0.16904006    -0.24020
H2145       H  0.83498387  0.13563565  0.20265700     0.08560
N2146       N  0.60892669  0.13063585  0.20250618    -0.45240
H2147       H  0.72656434  0.19906063  0.24664389     0.08550
C2148       C  0.79635976  0.28137729  0.19078812     0.44250
C2149       C  0.60490425  0.21626489  0.22508685    -0.04770
Co2150     Co  0.71024075  0.23070981  0.21266016     0.73820
N2151       N  0.79200231  0.16735822  0.22568299    -0.44960
C2152       C  0.60746143  0.18948886  0.14751155     0.44510
N2153       N  0.65575529  0.28148193  0.20082173    -0.44950
Co2154     Co  0.77828076  0.19107168  0.19317078     0.73890
C2155       C  0.79961606  0.19848415  0.15868920    -0.05280
C2156       C  0.65315510  0.10415287  0.18967582    -0.04840
N2157       N  0.63740394  0.23831948  0.19241627    -0.24370
N2158       N  0.75828285  0.10312528  0.18519964    -0.45130
H2159       H  0.65785772  0.16061897  0.13931483     0.08520
C2160       C  0.76128981  0.27981036  0.19970585    -0.05250
Cl2161     Cl  0.70626176  0.19215000  0.19360489    -0.48250
C2162       C  0.77536647  0.16851717  0.23949167     0.44280
H2163       H  0.58074924  0.24925518  0.18214507     0.08490
N2164       N  0.80672734  0.25373395  0.18734456    -0.44960
C2165       C  0.84860389  0.18591596  0.10514847     0.44130
N2166       N  0.89303560  0.20127292  0.09029004     0.03020
C2167       C  0.91273502  0.17276095  0.01264480    -0.04860
H2168       H  0.91715861  0.08498702  0.04207693     0.08510
C2169       C  0.54941143  0.13027618  0.06945357    -0.05210
Co2170     Co  0.87421589  0.18662619  0.05692117     0.74180
N2171       N  0.90924381  0.12956246  0.04966548    -0.24390
Co2172     Co  0.95534194  0.15575533  0.04075241     0.74070
C2173       C  0.53820268  0.10180052  0.06324941     0.44230
N2174       N  0.51127477  0.19062912  0.08833182     0.02630
N2175       N  0.99804002  0.13390126  0.05401640     0.02740
N2176       N  0.85237825  0.17773326  0.02168563    -0.45240
H2177       H  0.81326645  0.16478748  0.08486767     0.08500
N2178       N  0.87966613  0.14220796  0.05650931     0.03020
N2179       N  0.99773581  0.18363629  0.03175455     0.02760
C2180       C  0.51987133  0.21808544  0.01738666     0.44370
N2181       N  0.98153220  0.20346795  0.09496312    -0.23840
C2182       C  0.84511995  0.25076937  0.05141231    -0.04760
N2183       N  0.88209220  0.20159605  0.10474274    -0.44950
N2184       N  0.49549412  0.19485605  0.01764230    -0.45170
C2185       C  0.85520934  0.27919665  0.05801490     0.44140
N2186       N  0.87985228  0.18420193  0.03259072     0.03010
N2187       N  0.98415979  0.25109233  0.07345442    -0.23870
N2188       N  0.86818455  0.18689171  0.08097234    -0.24360
N2189       N  0.51407366  0.23828191  0.06706167     0.02650
H2190       H  0.97638656  0.29482378  0.08214944     0.08540
H2191       H  0.55448001  0.23845131  0.03777622     0.08580
N2192       N  0.91471846  0.17792220  0.02761906    -0.24410
N2193       N  0.52275413  0.14875874  0.06305247    -0.24020
N2194       N  0.89589514  0.24730047  0.06729910     0.03020
C2195       C  0.86154217  0.09770014  0.05495132     0.44410
C2196       C  0.98805178  0.20192123  0.11027823    -0.05270
N2197       N  0.52131983  0.19881746  0.04110104    -0.24020
H2198       H  0.57410699  0.13621941  0.07707751     0.08560
N2199       N  0.85080160  0.12421870  0.05963204    -0.45240
H2200       H  0.97040361  0.21224046  0.11878187     0.08550
C2201       C  0.53292530  0.28217123  0.07006850     0.44250
C2202       C  0.83902239  0.17630295  0.08937916    -0.04770
Co2203     Co  0.93836102  0.22615745  0.08169255     0.73820
N2204       N  0.53839535  0.18065020  0.09830920    -0.44960
C2205       C  0.87151186  0.17039093  0.00869913     0.44510
N2206       N  0.88645642  0.27532281  0.06791476    -0.44950
Co2207     Co  0.51810451  0.19389129  0.06488809     0.73890
C2208       C  0.53722171  0.22061105  0.03299879    -0.05280
C2209       C  0.90027545  0.10094155  0.04814675    -0.04840
N2210       N  0.87188764  0.23234660  0.05779449    -0.24370
N2211       N  0.00653878  0.10570039  0.05356893    -0.45130
H2212       H  0.93599357  0.16164897  0.00684057     0.08520
C2213       C  0.99341461  0.27929276  0.07585181    -0.05250
Cl2214     Cl  0.94639516  0.19050336  0.06117892    -0.48250
C2215       C  0.52548083  0.18640382  0.11234479     0.44280
H2216       H  0.82009051  0.24461569  0.04401514     0.08490
N2217       N  0.54396484  0.25597402  0.06510152    -0.44960
C2218       C  0.79780941  0.44853504  0.10780871     0.44130
N2219       N  0.75267092  0.43073405  0.09276255     0.03020
C2220       C  0.72409870  0.45711640  0.01499499    -0.04860
H2221       H  0.72134007  0.04454568  0.04220405     0.08510
C2222       C  0.59276475  0.99808282  0.06928812    -0.05210
Co2223     Co  0.76725482  0.44467089  0.05976760     0.74180
N2224       N  0.73031909  0.00098693  0.05140183    -0.24390
Co2225     Co  0.68395762  0.47364568  0.04223585     0.74070
C2226       C  0.60262095  0.02666008  0.06321142     0.44230
N2227       N  0.63399486  0.43901219  0.08930293     0.02630
N2228       N  0.64218159  0.99499686  0.05458956     0.02740
N2229       N  0.78521863  0.45416363  0.02553469    -0.45240
H2230       H  0.82955390  0.46944109  0.08777950     0.08500
N2231       N  0.76103429  0.48904402  0.05887336     0.03020
N2232       N  0.64240946  0.44471002  0.03284385     0.02760
C2233       C  0.63192304  0.40511305  0.01976743     0.44370
N2234       N  0.66490058  0.42680133  0.09656163    -0.23840
C2235       C  0.79562791  0.38099614  0.05412168    -0.04760
N2236       N  0.76541678  0.43163048  0.10734491    -0.44950
N2237       N  0.64893369  0.43146419  0.01965323    -0.45170
C2238       C  0.78667792  0.35229042  0.06022445     0.44140
N2239       N  0.75902854  0.44614399  0.03561909     0.03010
N2240       N  0.66156651  0.37833185  0.07547126    -0.23870
N2241       N  0.77559256  0.44532401  0.08360472    -0.24360
N2242       N  0.63030011  0.39057275  0.06870618     0.02650
H2243       H  0.67210947  0.33481733  0.08443009     0.08540
H2244       H  0.60034145  0.38410295  0.03926699     0.08580
N2245       N  0.72351100  0.45150640  0.02991122    -0.24410
N2246       N  0.61893699  0.47986107  0.06328628    -0.24020
N2247       N  0.74867048  0.38377200  0.07017903     0.03020
C2248       C  0.77884695  0.03336028  0.05617712     0.44410
C2249       C  0.65996410  0.42870712  0.11178067    -0.05270
N2250       N  0.62150480  0.42842458  0.04190412    -0.24020
H2251       H  0.56941549  0.99194656  0.07669994     0.08560
N2252       N  0.79043019  0.00733266  0.06170706    -0.45240
H2253       H  0.67891983  0.41901791  0.12070492     0.08550
C2254       C  0.61314977  0.34648869  0.07177686     0.44250
C2255       C  0.80504394  0.45741357  0.09214098    -0.04770
Co2256     Co  0.70742824  0.40444174  0.08401754     0.73820
N2257       N  0.60761341  0.44885093  0.09872102    -0.44960
C2258       C  0.76466284  0.46234318  0.01239089     0.44510
N2259       N  0.75775806  0.35560969  0.07024610    -0.44950
Co2260     Co  0.62518484  0.43480241  0.06571843     0.73890
C2261       C  0.61238129  0.40348926  0.03431469    -0.05280
C2262       C  0.73897684  0.02939863  0.04911423    -0.04840
N2263       N  0.77067160  0.39911304  0.06087709    -0.24370
N2264       N  0.63314208  0.02311795  0.05400191    -0.45130
H2265       H  0.69968268  0.46775807  0.00879373     0.08520
C2266       C  0.65356958  0.35000217  0.07791601    -0.05250
Cl2267     Cl  0.69619336  0.43959759  0.06323993    -0.48250
C2268       C  0.62220521  0.44370723  0.11306415     0.44280
H2269       H  0.81833610  0.38739071  0.04647031     0.08490
N2270       N  0.60050711  0.37243776  0.06662402    -0.44960
C2271       C  0.50218865  0.28676827  0.98689315     0.44130
N2272       N  0.52479841  0.32125436  0.97266777     0.03020
C2273       C  0.53864605  0.30059968  0.89418605    -0.04860
H2274       H  0.54813992  0.20900173  0.92323797     0.08510
C2275       C  0.67749305  0.25327865  0.95491379    -0.05210
Co2276     Co  0.50600654  0.31064235  0.93930632     0.74180
N2277       N  0.54005693  0.25311069  0.93137572    -0.24390
Co2278     Co  0.58665125  0.27781246  0.92349737     0.74070
C2279       C  0.66763558  0.22480990  0.94836333     0.44230
N2280       N  0.64242887  0.31954513  0.97297729     0.02630
N2281       N  0.62800316  0.25671108  0.93840225     0.02740
N2282       N  0.98709551  0.32210247  0.90526847    -0.45240
H2283       H  0.96848732  0.26634091  0.96632365     0.08500
N2284       N  0.50981709  0.26621109  0.93738956     0.03020
N2285       N  0.63284157  0.30267305  0.91541218     0.02760
C2286       C  0.67844789  0.31850146  0.90127513     0.44370
N2287       N  0.60770661  0.32698458  0.97768328    -0.23840
C2288       C  0.97548974  0.37441604  0.93439999    -0.04760
N2289       N  0.52648782  0.31004156  0.98678378    -0.44950
N2290       N  0.64501834  0.30261035  0.90112831    -0.45170
C2291       C  0.98637527  0.40287197  0.94073544     0.44140
N2292       N  0.51393245  0.31318962  0.91571675     0.03010
N2293       N  0.61466583  0.37480322  0.95554827    -0.23870
N2294       N  0.50164793  0.30604420  0.96315474    -0.24360
N2295       N  0.64466679  0.36181001  0.94916426     0.02650
H2296       H  0.60657211  0.41962612  0.96271139     0.08540
H2297       H  0.71193140  0.33952381  0.92198904     0.08580
N2298       N  0.54430056  0.30017608  0.90957530    -0.24410
N2299       N  0.65142521  0.27168712  0.94810249    -0.24020
N2300       N  0.52596054  0.37068095  0.95029009     0.03020
C2301       C  0.49087014  0.22228998  0.93466114     0.44410
C2302       C  0.60933267  0.33187290  0.99268537    -0.05270
N2303       N  0.65691378  0.31704761  0.92504079    -0.24020
H2304       H  0.70194992  0.25944630  0.96260269     0.08560
N2305       N  0.47971637  0.24868711  0.93927631    -0.45240
H2306       H  0.58641064  0.34345223  0.99844759     0.08550
C2307       C  0.66311465  0.40626392  0.95060366     0.44250
C2308       C  0.98547499  0.28423751  0.97117968    -0.04770
Co2309     Co  0.56780202  0.34893859  0.96404744     0.73820
N2310       N  0.66979274  0.32450253  0.98412491    -0.44960
C2311       C  0.50095255  0.31547369  0.89143228     0.44510
N2312       N  0.51745187  0.39888222  0.95069278    -0.44950
Co2313     Co  0.64946084  0.31729268  0.94886005     0.73890
C2314       C  0.68665974  0.32792287  0.91710725    -0.05280
C2315       C  0.53076931  0.22484396  0.92917821    -0.04840
N2316       N  0.50175211  0.35586589  0.94100698    -0.24370
N2317       N  0.63722671  0.22862747  0.93805602    -0.45130
H2318       H  0.55690154  0.28971882  0.88607943     0.08520
C2319       C  0.62379483  0.40341691  0.95697208    -0.05250
Cl2320     Cl  0.57756477  0.31380550  0.94379539    -0.48250
C2321       C  0.65056992  0.33239916  0.99696751     0.44280
H2322       H  0.95112678  0.36851120  0.92660398     0.08490
N2323       N  0.67396065  0.37956275  0.94624353    -0.44960
C2324       C  0.89381458  0.09839050  0.98529580     0.44130
N2325       N  0.88393972  0.05872879  0.97210954     0.03020
C2326       C  0.85856453  0.07813029  0.89344774    -0.04860
H2327       H  0.85038517  0.17036643  0.92175334     0.08510
C2328       C  0.72888904  0.12355961  0.95320551    -0.05210
Co2329     Co  0.89816450  0.06971820  0.93893988     0.74180
N2330       N  0.86130235  0.12653425  0.93021294    -0.24390
Co2331     Co  0.81445750  0.10070237  0.92217888     0.74070
C2332       C  0.73727130  0.15233170  0.94705125     0.44230
N2333       N  0.76751158  0.05802900  0.97100092     0.02630
N2334       N  0.77482502  0.12106935  0.93671627     0.02740
N2335       N  0.91253896  0.05764032  0.90520738    -0.45240
H2336       H  0.92282922  0.12041030  0.96547745     0.08500
N2337       N  0.89309373  0.11396900  0.93636730     0.03020
N2338       N  0.76836459  0.07478778  0.91383838     0.02760
C2339       C  0.72145358  0.05798393  0.89927559     0.44370
N2340       N  0.80320030  0.05147008  0.97609518    -0.23840
C2341       C  0.93054753  0.00651840  0.93466039    -0.04760
N2342       N  0.87809293  0.07160914  0.98546573    -0.44950
N2343       N  0.75411744  0.07458973  0.89944045    -0.45170
C2344       C  0.92145466  0.47779514  0.94077854     0.44140
N2345       N  0.88706708  0.06634499  0.91530968     0.03010
N2346       N  0.79431567  0.00315818  0.95414098    -0.23870
N2347       N  0.90358110  0.07557383  0.96286699    -0.24360
N2348       N  0.76293364  0.01555957  0.94735782     0.02650
H2349       H  0.80412248  0.45900249  0.96238009     0.08540
H2350       H  0.69143764  0.03665734  0.91961167     0.08580
N2351       N  0.85535712  0.07880837  0.90877500    -0.24410
N2352       N  0.75353139  0.10558272  0.94619297    -0.24020
N2353       N  0.88217512  0.00914812  0.94988322     0.03020
C2354       C  0.91042319  0.15802533  0.93337057     0.44410
C2355       C  0.80416379  0.04663280  0.99109828    -0.05270
N2356       N  0.74620310  0.06003218  0.92319939    -0.24020
H2357       H  0.70650572  0.11700500  0.96096393     0.08560
N2358       N  0.92324599  0.13186954  0.93811352    -0.45240
H2359       H  0.82864920  0.03565053  0.99707546     0.08550
C2360       C  0.74534734  0.47106634  0.94950135     0.44250
C2361       C  0.91212399  0.10063603  0.97048864    -0.04770
Co2362     Co  0.84158939  0.02998543  0.96299663     0.73820
N2363       N  0.74217137  0.05201851  0.98178105    -0.44960
C2364       C  0.89623766  0.06375795  0.89118840     0.44510
N2365       N  0.89159630  0.48109424  0.95032194    -0.44950
Co2366     Co  0.75686275  0.06003565  0.94693356     0.73890
C2367       C  0.71573296  0.04853148  0.91498164    -0.05280
C2368       C  0.86937466  0.15489830  0.92785784    -0.04840
N2369       N  0.90461157  0.02453876  0.94097992    -0.24370
N2370       N  0.76550725  0.14916640  0.93674134    -0.45130
H2371       H  0.83872562  0.08857299  0.88507629     0.08520
C2372       C  0.78583277  0.47460162  0.95604706    -0.05250
Cl2373     Cl  0.82768315  0.06493224  0.94258221    -0.48250
C2374       C  0.76379297  0.04393758  0.99471470     0.44280
H2375       H  0.95342965  0.01289847  0.92708566     0.08490
N2376       N  0.73331343  0.49742628  0.94461266    -0.44960
C2377       C  0.66270403  0.08029595  0.39738486     0.44130
N2378       N  0.62347509  0.09799247  0.41356824     0.03020
C2379       C  0.61966249  0.08105666  0.49115000    -0.04860
H2380       H  0.61315491  0.47913930  0.45818970     0.08510
C2381       C  0.97996893  0.02358714  0.43670600    -0.05210
Co2382     Co  0.65128774  0.08407417  0.44582304     0.74180
N2383       N  0.62258879  0.02464127  0.45313335    -0.24390
Co2384     Co  0.57952165  0.04686474  0.46406284     0.74070
C2385       C  0.99209570  0.49468673  0.44129507     0.44230
N2386       N  0.50641631  0.08723898  0.42005576     0.02630
N2387       N  0.53419064  0.02516063  0.45090612     0.02740
N2388       N  0.66217348  0.10832707  0.47845006    -0.45240
H2389       H  0.70237727  0.05946173  0.41639307     0.08500
N2390       N  0.65080830  0.03875730  0.44643798     0.03020
N2391       N  0.53804390  0.06902702  0.47540462     0.02760
C2392       C  0.99486615  0.06369853  0.49245921     0.44370
N2393       N  0.53436807  0.10042127  0.41258311    -0.23840
C2394       C  0.68137816  0.14605394  0.45012675    -0.04760
N2395       N  0.63030841  0.09714265  0.39866177    -0.44950
N2396       N  0.53252651  0.06052948  0.48952169    -0.45170
C2397       C  0.67051495  0.17454288  0.44437708     0.44140
N2398       N  0.64855891  0.08643330  0.46974203     0.03010
N2399       N  0.53739813  0.14464738  0.43654355    -0.23870
N2400       N  0.65029500  0.08341702  0.42196760    -0.24360
N2401       N  0.51006609  0.13103097  0.44428764     0.02650
H2402       H  0.54600794  0.18977142  0.43050320     0.08540
H2403       H  0.94573337  0.07876818  0.47490863     0.08580
N2404       N  0.62204247  0.07093317  0.47671609    -0.24410
N2405       N  0.50734697  0.04088173  0.44320265    -0.24020
N2406       N  0.62606753  0.14405481  0.43677153     0.03020
C2407       C  0.66669929  0.49383648  0.44493248     0.44410
C2408       C  0.52571565  0.09813997  0.39737977    -0.05270
N2409       N  0.50641707  0.07990823  0.46829271    -0.24020
H2410       H  0.95329440  0.03069804  0.43056646     0.08560
N2411       N  0.67838452  0.02109084  0.44151423    -0.45240
H2412       H  0.54248043  0.10749986  0.38831465     0.08550
C2413       C  0.99449290  0.17623457  0.44515576     0.44250
C2414       C  0.67622295  0.07147350  0.41272129    -0.04770
Co2415     Co  0.58019527  0.12230665  0.42455289     0.73820
N2416       N  0.97866935  0.07581740  0.41073664    -0.44960
C2417       C  0.64531589  0.10636725  0.49220729     0.44510
N2418       N  0.63637088  0.17194092  0.43583776    -0.44950
Co2419     Co  0.50683116  0.08532828  0.44401678     0.73890
C2420       C  0.97670088  0.07659128  0.47811104    -0.05280
C2421       C  0.63003901  0.49599337  0.45279160    -0.04840
N2422       N  0.65242030  0.12867477  0.44483693    -0.24370
N2423       N  0.52540997  0.49691517  0.45042100    -0.45130
H2424       H  0.59777589  0.07507125  0.49915993     0.08520
C2425       C  0.53000333  0.17333017  0.43659968    -0.05250
Cl2426     Cl  0.57935913  0.08467373  0.44454647    -0.48250
C2427       C  0.98899390  0.08155383  0.39629861     0.44280
H2428       H  0.70821918  0.13903036  0.45617596     0.08490
N2429       N  0.98317531  0.14922348  0.44931304    -0.44960
C2430       C  0.90210976  0.32834948  0.39469773     0.44130
N2431       N  0.86784212  0.34834560  0.41172097     0.03020
C2432       C  0.87263610  0.33517907  0.48943338    -0.04860
H2433       H  0.87040427  0.23150939  0.45861285     0.08510
C2434       C  0.73313883  0.27032300  0.43824770    -0.05210
Co2435     Co  0.90037703  0.33701097  0.44354421     0.74180
N2436       N  0.87657824  0.27684332  0.45247272    -0.24390
Co2437     Co  0.83381733  0.29870201  0.46358523     0.74070
C2438       C  0.74739233  0.24220258  0.44336387     0.44230
N2439       N  0.75426454  0.33410059  0.42005559     0.02630
N2440       N  0.78838403  0.27479723  0.45160470     0.02740
N2441       N  0.90419271  0.36692295  0.47496082    -0.45240
H2442       H  0.94616373  0.30916835  0.41282299     0.08500
N2443       N  0.90320249  0.29143440  0.44511374     0.03020
N2444       N  0.79299684  0.32199634  0.47483916     0.02760
C2445       C  0.75317337  0.31619262  0.49297745     0.44370
N2446       N  0.78033754  0.34834656  0.41213709    -0.23840
C2447       C  0.92774946  0.39949914  0.44644214    -0.04760
N2448       N  0.87055944  0.34553242  0.39665666    -0.44950
N2449       N  0.79047046  0.31613356  0.48944274    -0.45170
C2450       C  0.91472646  0.42749976  0.44083043     0.44140
N2451       N  0.89831640  0.34189354  0.46746885     0.03010
N2452       N  0.78290875  0.39347918  0.43550861    -0.23870
N2453       N  0.89638443  0.33459545  0.41963379    -0.24360
N2454       N  0.75711430  0.37909430  0.44364337     0.02650
H2455       H  0.78886415  0.43886016  0.42947286     0.08540
H2456       H  0.70031815  0.32604994  0.47604253     0.08580
N2457       N  0.87646422  0.32403631  0.47528479    -0.24410
N2458       N  0.75999192  0.28900696  0.44391211    -0.24020
N2459       N  0.87118756  0.39578904  0.43410612     0.03020
C2460       C  0.92174616  0.24686932  0.44431929     0.44410
C2461       C  0.77092051  0.34530871  0.39708254    -0.05270
N2462       N  0.75945972  0.32986038  0.46807306    -0.24020
H2463       H  0.70549257  0.27608499  0.43238260     0.08560
N2464       N  0.93140995  0.27426602  0.44017774    -0.45240
H2465       H  0.78611596  0.35524852  0.38775006     0.08550
C2466       C  0.73967886  0.42375388  0.44491171     0.44250
C2467       C  0.91974077  0.32140855  0.40978713    -0.04770
Co2468     Co  0.82540232  0.37213953  0.42307277     0.73820
N2469       N  0.72685177  0.32127409  0.41116649    -0.44960
C2470       C  0.88780065  0.36457710  0.48881752     0.44510
N2471       N  0.87983649  0.42395690  0.43288074    -0.44950
Co2472     Co  0.75677667  0.33341771  0.44392765     0.73890
C2473       C  0.73173721  0.32601774  0.47861289    -0.05280
C2474       C  0.88570783  0.24845619  0.45261056    -0.04840
N2475       N  0.89920560  0.38132755  0.44173167    -0.24370
N2476       N  0.78131339  0.24628311  0.45191884    -0.45130
H2477       H  0.85409383  0.32695309  0.49812558     0.08520
C2478       C  0.77422888  0.42192932  0.43573838    -0.05250
Cl2479     Cl  0.82906044  0.33523797  0.44340366    -0.48250
C2480       C  0.73596708  0.32695365  0.39658511     0.44280
H2481       H  0.95534252  0.39333774  0.45222327     0.08490
N2482       N  0.73006951  0.39648385  0.44920549    -0.44960
C2483       C  0.85941565  0.43555971  0.51170424     0.44130
N2484       N  0.90265694  0.44677917  0.52947660     0.03020
C2485       C  0.89301702  0.46912034  0.60801252    -0.04860
H2486       H  0.90626263  0.06170032  0.57591181     0.08510
C2487       C  0.54259897  0.02418944  0.56106316    -0.05210
Co2488     Co  0.87211230  0.45595417  0.56075585     0.74180
N2489       N  0.89896157  0.01617972  0.57003170    -0.24390
Co2490     Co  0.94446744  0.99439004  0.58272833     0.74070
C2491       C  0.53022634  0.05130704  0.56757041     0.44230
N2492       N  0.51120317  0.46723501  0.53840022     0.02630
N2493       N  0.98764252  0.01887447  0.57240952     0.02740
N2494       N  0.84575050  0.44570991  0.59367081    -0.45240
H2495       H  0.81000824  0.44134532  0.52895974     0.08500
N2496       N  0.87194592  0.00196761  0.56145476     0.03020
N2497       N  0.99081170  0.47070073  0.59420500     0.02760
C2498       C  0.53432321  0.45444706  0.61073255     0.44370
N2499       N  0.98573032  0.45147035  0.53016682    -0.23840
C2500       C  0.84825930  0.39254482  0.56376698    -0.04760
N2501       N  0.89738560  0.43910896  0.51504783    -0.44950
N2502       N  0.00014370  0.46966861  0.60920503    -0.45170
C2503       C  0.85948244  0.36552657  0.55666415     0.44140
N2504       N  0.87348708  0.45627855  0.58494300     0.03010
N2505       N  0.99159531  0.40166227  0.55214716    -0.23870
N2506       N  0.86985315  0.45241035  0.53630302    -0.24360
N2507       N  0.51934358  0.41590858  0.56002985     0.02650
H2508       H  0.98365454  0.35621397  0.54624885     0.08540
H2509       H  0.57319778  0.43693875  0.59192267     0.08580
N2510       N  0.90126338  0.47025585  0.59308442    -0.24410
N2511       N  0.51469714  0.00540191  0.56470360    -0.24020
N2512       N  0.90264202  0.39825843  0.55179526     0.03020
C2513       C  0.85452816  0.04697546  0.55982121     0.44410
C2514       C  0.97983904  0.46439726  0.51633397    -0.05270
N2515       N  0.51776290  0.45785182  0.58599022    -0.24020
H2516       H  0.56981570  0.01876524  0.55573213     0.08560
N2517       N  0.84441184  0.01962104  0.55538597    -0.45240
H2518       H  0.95793306  0.45868318  0.50757263     0.08550
C2519       C  0.53718285  0.37116331  0.56132506     0.44250
C2520       C  0.84029742  0.44462046  0.52605827    -0.04770
Co2521     Co  0.94610549  0.42394885  0.54089281     0.73820
N2522       N  0.51997623  0.49193392  0.53128507    -0.44960
C2523       C  0.85650798  0.45263473  0.60835027     0.44510
N2524       N  0.89304302  0.37049726  0.54913601    -0.44950
Co2525     Co  0.51652661  0.46121700  0.56219220     0.73890
C2526       C  0.54618265  0.44691184  0.59543310    -0.05280
C2527       C  0.89032196  0.04476599  0.56962221    -0.04840
N2528       N  0.87601476  0.41144686  0.56000673    -0.24370
N2529       N  0.99641521  0.04674610  0.57481546    -0.45130
H2530       H  0.90912760  0.48020118  0.61728453     0.08520
C2531       C  0.00032678  0.37314837  0.55223768    -0.05250
Cl2532     Cl  0.94471409  0.45869702  0.56181234    -0.48250
C2533       C  0.50097017  0.49177954  0.51731073     0.44280
H2534       H  0.82081758  0.39817143  0.56887121     0.08490
N2535       N  0.54766316  0.39846231  0.56563328    -0.44960
C2536       C  0.76056970  0.23682187  0.51189072     0.44130
N2537       N  0.72493460  0.21619774  0.52823044     0.03020
C2538       C  0.75894563  0.19580925  0.60625342    -0.04860
H2539       H  0.73465415  0.10466053  0.57518645     0.08510
C2540       C  0.59311895  0.14522938  0.56092572    -0.05210
Co2541     Co  0.76552470  0.20965978  0.55913433     0.74180
N2542       N  0.73999473  0.14981819  0.56850616    -0.24390
Co2543     Co  0.69887722  0.17234529  0.58150515     0.74070
C2544       C  0.60651888  0.11770888  0.56712530     0.44230
N2545       N  0.61810449  0.20239882  0.53817907     0.02630
N2546       N  0.65171656  0.14915045  0.57152624     0.02740
N2547       N  0.80248950  0.21855467  0.59140510    -0.45240
H2548       H  0.81356134  0.23567169  0.52933907     0.08500
N2549       N  0.76498747  0.16370028  0.55976319     0.03020
N2550       N  0.65737738  0.19671401  0.59341498     0.02760
C2551       C  0.61905388  0.21217192  0.61056029     0.44370
N2552       N  0.64210863  0.21712689  0.52966109    -0.23840
C2553       C  0.79185519  0.27251525  0.56243643    -0.04760
N2554       N  0.72569170  0.22520287  0.51395187    -0.44950
N2555       N  0.65211072  0.19651592  0.60842822    -0.45170
C2556       C  0.77951588  0.29973744  0.55543885     0.44140
N2557       N  0.77145458  0.20907654  0.58310327     0.03010
N2558       N  0.64688010  0.26656509  0.55153294    -0.23870
N2559       N  0.76006104  0.21364848  0.53496773    -0.24360
N2560       N  0.62103814  0.25323189  0.55991599     0.02650
H2561       H  0.65539205  0.31168918  0.54531411     0.08540
H2562       H  0.57523947  0.23124676  0.59243825     0.08580
N2563       N  0.74581445  0.19542244  0.59150327    -0.24410
N2564       N  0.62276506  0.16338957  0.56428375    -0.24020
N2565       N  0.73507116  0.26737227  0.55012904     0.03020
C2566       C  0.78232954  0.11867231  0.55874189     0.44410
C2567       C  0.64052011  0.20555624  0.51544762    -0.05270
N2568       N  0.62863552  0.21056827  0.58568026    -0.24020
H2569       H  0.56449670  0.15130276  0.55600377     0.08560
N2570       N  0.79136402  0.14586222  0.55398971    -0.45240
H2571       H  0.65960159  0.21085871  0.50628702     0.08550
C2572       C  0.60620556  0.29851420  0.56129313     0.44250
C2573       C  0.78472965  0.22766869  0.52565537    -0.04770
Co2574     Co  0.68716765  0.24245495  0.53980835     0.73820
N2575       N  0.60280636  0.17943160  0.53076218    -0.44960
C2576       C  0.79619637  0.21140674  0.60612412     0.44510
N2577       N  0.74436030  0.29519750  0.54773079    -0.44950
Co2578     Co  0.62185043  0.20774302  0.56198640     0.73890
C2579       C  0.60328693  0.22121147  0.59554736    -0.05280
C2580       C  0.74867217  0.12124924  0.56847568    -0.04840
N2581       N  0.76304794  0.25394024  0.55846210    -0.24370
N2582       N  0.64269856  0.12141119  0.57389679    -0.45130
H2583       H  0.74565733  0.18449706  0.61563230     0.08520
C2584       C  0.63982325  0.29532957  0.55163746    -0.05250
Cl2585     Cl  0.69339985  0.20822574  0.56079235    -0.48250
C2586       C  0.61566623  0.17992440  0.51626924     0.44280
H2587       H  0.82012418  0.26663275  0.56775368     0.08490
N2588       N  0.59562884  0.27157622  0.56585586    -0.44960
C2589       C  0.87403036  0.20502491  0.64272605     0.44130
N2590       N  0.91320006  0.18557741  0.65975786     0.03020
C2591       C  0.91647033  0.22095598  0.73695191    -0.04860
H2592       H  0.93295671  0.30265057  0.70779031     0.08510
C2593       C  0.56695748  0.25360269  0.69094558    -0.05210
Co2594     Co  0.88883813  0.20199212  0.69137414     0.74180
N2595       N  0.92457902  0.25803927  0.70018701    -0.24390
Co2596     Co  0.96601927  0.23096825  0.71255728     0.74070
C2597       C  0.55553796  0.28234195  0.69635500     0.44230
N2598       N  0.53077230  0.19406898  0.66933735     0.02630
N2599       N  0.01221799  0.25134965  0.70253898     0.02740
N2600       N  0.86059294  0.22227130  0.72243889    -0.45240
H2601       H  0.83765069  0.22728081  0.66094226     0.08500
N2602       N  0.89660460  0.24591603  0.69130736     0.03020
N2603       N  0.00338500  0.20246325  0.72452313     0.02760
C2604       C  0.50743543  0.16335400  0.73836757     0.44370
N2605       N  0.00199809  0.18186542  0.66078459    -0.23840
C2606       C  0.85785894  0.13836536  0.69686910    -0.04760
N2607       N  0.90520799  0.18687891  0.64469151    -0.44950
N2608       N  0.49144933  0.18999212  0.73724983    -0.45170
C2609       C  0.86856262  0.10922313  0.69173254     0.44140
N2610       N  0.88782495  0.20690730  0.71545263     0.03010
N2611       N  0.99913843  0.13390053  0.68238121    -0.23390
N2612       N  0.88816935  0.20093865  0.66760894    -0.24360
N2613       N  0.52777945  0.14663685  0.69056294     0.02650
H2614       H  0.99282029  0.08981829  0.67364739     0.08540
H2615       H  0.54526327  0.14080296  0.72122421     0.08580
N2616       N  0.92166181  0.21011905  0.72305303    -0.24410
N2617       N  0.53819666  0.23580665  0.69536490    -0.24020
N2618       N  0.90988617  0.14008181  0.68328157     0.03020
C2619       C  0.88117030  0.29087001  0.69078770     0.44410
C2620       C  0.51019625  0.18515342  0.64591820    -0.05270
N2621       N  0.52705834  0.18545174  0.71696302    -0.24020
H2622       H  0.59299402  0.24705334  0.68511966     0.08560
N2623       N  0.87006947  0.26448553  0.68574465    -0.45240
H2624       H  0.99299438  0.17663221  0.63617161     0.08550
C2625       C  0.54689111  0.10258389  0.68921827     0.44250
C2626       C  0.86236903  0.21401110  0.65780685    -0.04770
Co2627     Co  0.95570448  0.15970011  0.67121533     0.73820
N2628       N  0.55880999  0.20536291  0.66112911    -0.44960
C2629       C  0.87739379  0.23234999  0.73592165     0.44510
N2630       N  0.90073384  0.11193990  0.68327746    -0.44950
Co2631     Co  0.53200162  0.19078613  0.69316052     0.73890
C2632       C  0.53233241  0.16068923  0.72521256    -0.05280
C2633       C  0.91710370  0.28690520  0.70063702    -0.04840
N2634       N  0.88505633  0.15609890  0.69113344    -0.24370
N2635       N  0.52162177  0.27932591  0.70361493    -0.45130
H2636       H  0.94031212  0.23145592  0.74352978     0.08520
C2637       C  0.50865187  0.10550901  0.68084324    -0.05250
Cl2638     Cl  0.96055149  0.19582286  0.69180290    -0.48250
C2639       C  0.54755337  0.20096867  0.64631740     0.44280
H2640       H  0.83277871  0.14521944  0.70319723     0.08490
N2641       N  0.55701860  0.12892608  0.69451468    -0.44960
C2642       C  0.64493251  0.06608154  0.86250860     0.44130
N2643       N  0.60500473  0.05328604  0.84405728     0.03020
C2644       C  0.60695406  0.06943123  0.76718577    -0.04860
H2645       H  0.60334389  0.17407992  0.79955982     0.08510
C2646       C  0.96561313  0.13274327  0.81342350    -0.05210
Co2647     Co  0.63653329  0.06830665  0.81361928     0.74180
N2648       N  0.61095422  0.12836959  0.80491860    -0.24390
Co2649     Co  0.56784771  0.10668337  0.79190812     0.74070
C2650       C  0.97758473  0.16105501  0.80808014     0.44230
N2651       N  0.48984005  0.06717863  0.83251473     0.02630
N2652       N  0.52198682  0.12976418  0.80262283     0.02740
N2653       N  0.64784394  0.04240758  0.78213763    -0.45240
H2654       H  0.68738455  0.08739742  0.84602237     0.08500
N2655       N  0.63788881  0.11381771  0.81309746     0.03020
N2656       N  0.52649090  0.08492301  0.77880007     0.02760
C2657       C  0.98452199  0.09224020  0.76004752     0.44370
N2658       N  0.51664478  0.05251305  0.84080156    -0.23840
C2659       C  0.66568202  0.50625222  0.81103934    -0.04760
N2660       N  0.61155142  0.05104962  0.85913739    -0.44950
N2661       N  0.52230668  0.09323547  0.76443613    -0.45170
C2662       C  0.65341317  0.47804151  0.81620187     0.44140
N2663       N  0.63587613  0.06572726  0.78969325     0.03010
N2664       N  0.51954293  0.00962310  0.81650522    -0.23870
N2665       N  0.63308892  0.06799715  0.83737868    -0.24360
N2666       N  0.49311780  0.02437693  0.80794037     0.02650
H2667       H  0.52571049  0.46394938  0.82213332     0.08540
H2668       H  0.93357353  0.07973953  0.77555436     0.08580
N2669       N  0.61020117  0.08123637  0.78137053    -0.24410
N2670       N  0.49430587  0.11484734  0.80941466    -0.24020
N2671       N  0.60813634  0.00864020  0.82069160     0.03020
C2672       C  0.65492553  0.15863566  0.81553341     0.44410
C2673       C  0.50600174  0.05167446  0.85544445    -0.05270
N2674       N  0.49368451  0.07570059  0.78456494    -0.24020
H2675       H  0.93766645  0.12604471  0.81775049     0.08560
N2676       N  0.66534424  0.13109257  0.81948442    -0.45240
H2677       H  0.52087839  0.03963033  0.86469116     0.08550
C2678       C  0.97550672  0.47961572  0.80556063     0.44250
C2679       C  0.65955748  0.07704094  0.84815929    -0.04770
Co2680     Co  0.56218633  0.03058683  0.83071315     0.73820
N2681       N  0.96038240  0.07624568  0.84078376    -0.44960
C2682       C  0.63061072  0.04310915  0.76786850     0.44510
N2683       N  0.61792060  0.48079146  0.82245692    -0.44950
Co2684     Co  0.49209191  0.07016765  0.80862518     0.73890
C2685       C  0.96475477  0.08037824  0.77359376    -0.05280
C2686       C  0.61922751  0.15692400  0.80571704    -0.04840
N2687       N  0.63609014  0.02380212  0.81438707    -0.24370
N2688       N  0.51241387  0.15781723  0.80119327    -0.45130
H2689       H  0.58541634  0.07496806  0.75823634     0.08520
C2690       C  0.51082747  0.48114166  0.81562947    -0.05250
Cl2691     Cl  0.56456894  0.06906736  0.81134749    -0.48250
C2692       C  0.96902222  0.06764974  0.85536550     0.44280
H2693       H  0.69377599  0.51308548  0.80689473     0.08490
N2694       N  0.96567704  0.50720601  0.80149256    -0.44960
C2695       C  0.61035620  0.44920372  0.64847943     0.44130
N2696       N  0.65594280  0.43322977  0.66418900     0.03020
C2697       C  0.67199491  0.47094566  0.74159030    -0.04860
H2698       H  0.68417275  0.05382993  0.70628856     0.08510
C2699       C  0.81433333  0.00503376  0.68959162    -0.05210
Co2700     Co  0.63789231  0.44942141  0.69668647     0.74180
N2701       N  0.67336657  0.00767232  0.70274199    -0.24390
Co2702     Co  0.71802699  0.48291674  0.71466486     0.74070
C2703       C  0.80377016  0.03408470  0.69486848     0.44230
N2704       N  0.77559765  0.44374947  0.66971832     0.02630
N2705       N  0.76207504  0.00309094  0.70281975     0.02740
N2706       N  0.61356819  0.45874073  0.73049181    -0.45240
H2707       H  0.57710826  0.47063365  0.66786096     0.08500
N2708       N  0.64341765  0.49374253  0.69584134     0.03020
N2709       N  0.75829036  0.45498838  0.72615968     0.02760
C2710       C  0.77187709  0.41856952  0.74157291     0.44370
N2711       N  0.74522642  0.43096363  0.66237492    -0.23840
C2712       C  0.61058155  0.38526968  0.70267984    -0.04760
N2713       N  0.64371158  0.43301758  0.64945648    -0.44950
N2714       N  0.75155262  0.44372005  0.73989684    -0.45170
C2715       C  0.62144803  0.35662499  0.69691414     0.44140
N2716       N  0.64246805  0.45389516  0.72091603     0.03010
N2717       N  0.74838319  0.38431315  0.68485958    -0.23870
N2718       N  0.63173254  0.44778344  0.67283192    -0.24360
N2719       N  0.77774010  0.39775106  0.69226833     0.02650
H2720       H  0.74141794  0.33955380  0.67724117     0.08540
H2721       H  0.80698501  0.39581360  0.72337722     0.08580
N2722       N  0.67589570  0.46365629  0.72700215    -0.24410
N2723       N  0.78680989  0.48731350  0.69512802    -0.24020
N2724       N  0.66035591  0.38848355  0.68802115     0.03020
C2725       C  0.62850458  0.03830788  0.69232936     0.44410
C2726       C  0.75050949  0.43223726  0.64717802    -0.05270
N2727       N  0.78147623  0.43824304  0.71818016    -0.24020
H2728       H  0.83921926  0.99825172  0.68313331     0.08560
N2729       N  0.61617185  0.01107215  0.68967403    -0.45240
H2730       H  0.73176652  0.42220099  0.63830946     0.08550
C2731       C  0.79719446  0.35367302  0.69146299     0.44250
C2732       C  0.60221161  0.45874795  0.66389101    -0.04770
Co2733     Co  0.70218514  0.40884194  0.67456957     0.73820
N2734       N  0.80213817  0.45341710  0.66021663    -0.44960
C2735       C  0.63057925  0.46917576  0.74391970     0.44510
N2736       N  0.65198836  0.36028642  0.68776535    -0.44950
Co2737     Co  0.78137486  0.44208418  0.69388920     0.73890
C2738       C  0.79217241  0.41514782  0.72715284    -0.05280
C2739       C  0.66622872  0.03651659  0.70127020    -0.04840
N2740       N  0.63638240  0.40369319  0.69662049    -0.24370
N2741       N  0.77136129  0.03121266  0.70315706    -0.45130
H2742       H  0.69332070  0.48408473  0.74809954     0.08520
C2743       C  0.75807998  0.35589075  0.68369936    -0.05250
Cl2744     Cl  0.70967201  0.44584513  0.69473128    -0.48250
C2745       C  0.78797147  0.44735573  0.64582526     0.44280
H2746       H  0.58582871  0.39144379  0.70936881     0.08490
N2747       N  0.80756142  0.38044836  0.69606204    -0.44960
C2748       C  0.74554618  0.31834594  0.86333165     0.44130
N2749       N  0.78199690  0.33282141  0.84521716     0.03020
C2750       C  0.75784546  0.32110239  0.76718893    -0.04860
H2751       H  0.77263217  0.21573897  0.79874742     0.08510
C2752       C  0.91351524  0.25660436  0.81182004    -0.05210
Co2753     Co  0.74319219  0.32113048  0.81428544     0.74180
N2754       N  0.76586023  0.26127800  0.80440892    -0.24390
Co2755     Co  0.80522188  0.28365526  0.79149926     0.74070
C2756       C  0.89964853  0.22840747  0.80670263     0.44230
N2757       N  0.89504542  0.31974116  0.83223349     0.02630
N2758       N  0.85427385  0.25999399  0.80140375     0.02740
N2759       N  0.72505075  0.34988633  0.78285038    -0.45240
H2760       H  0.69938700  0.29912026  0.84614030     0.08500
N2761       N  0.74108802  0.27550969  0.81286244     0.03020
N2762       N  0.84243727  0.30653304  0.77865240     0.02760
C2763       C  0.87518521  0.30717587  0.75818908     0.44370
N2764       N  0.87040943  0.33321240  0.84118720    -0.23840
C2765       C  0.71525436  0.38366935  0.81265879    -0.04760
N2766       N  0.77865277  0.33342903  0.86038597    -0.44950
N2767       N  0.84053869  0.30184271  0.76384049    -0.45170
C2768       C  0.72965900  0.41140853  0.81807421     0.44140
N2769       N  0.73811275  0.32605179  0.79025639     0.03010
N2770       N  0.86143071  0.37885004  0.81814964    -0.23870
N2771       N  0.75208705  0.31913037  0.83811604    -0.24360
N2772       N  0.88489192  0.36493403  0.80882387     0.02650
H2773       H  0.85660056  0.42419745  0.82453773     0.08540
H2774       H  0.93166115  0.32046444  0.77249896     0.08580
N2775       N  0.75979716  0.30973222  0.78152275    -0.24410
N2776       N  0.88401987  0.27467954  0.80795852    -0.24020
N2777       N  0.77433105  0.37975744  0.82280672     0.03020
C2778       C  0.72530547  0.23049282  0.81517171     0.44410
C2779       C  0.88477568  0.33194807  0.85577404    -0.05270
N2780       N  0.87650206  0.31667072  0.78393497    -0.24020
H2781       H  0.94242581  0.26300674  0.81629926     0.08560
N2782       N  0.71575116  0.25787154  0.81940198    -0.45240
H2783       H  0.87227255  0.34259486  0.86552450     0.08550
C2784       C  0.90128559  0.40986846  0.80691427     0.44250
C2785       C  0.72776351  0.30914425  0.84861603    -0.04770
Co2786     Co  0.82231875  0.35654172  0.83212459     0.73820
N2787       N  0.92649530  0.30944758  0.84003494    -0.44960
C2788       C  0.73643868  0.34847301  0.76812726     0.44510
N2789       N  0.76616684  0.40782362  0.82458920    -0.44950
Co2790     Co  0.88591863  0.31933404  0.80821129     0.73890
C2791       C  0.90016897  0.31697385  0.77175020    -0.05280
C2792       C  0.75814249  0.23265417  0.80507085    -0.04840
N2793       N  0.74472721  0.36542574  0.81611148    -0.24370
N2794       N  0.86297948  0.23180116  0.80004979    -0.45130
H2795       H  0.77475596  0.31433543  0.75766136     0.08520
C2796       C  0.86971074  0.40745149  0.81765364    -0.05250
Cl2797     Cl  0.81431413  0.31999193  0.81169797    -0.48250
C2798       C  0.92161969  0.31597856  0.85495284     0.44280
H2799       H  0.68639538  0.37767562  0.80795521     0.08490
N2800       N  0.90976380  0.38267790  0.80214078    -0.44960
C2801       C  0.74686814  0.37429497  0.75910913    -0.11600
C2802       C  0.75868699  0.39464717  0.75139090    -0.13160
C2803       C  0.61633926  0.49380756  0.75242599    -0.11600
C2804       C  0.62007627  0.01663861  0.75945049    -0.13160
C2805       C  0.94865906  0.45531967  0.80459623    -0.11600
C2806       C  0.92658624  0.43471344  0.80507575    -0.13160
C2807       C  0.68030501  0.18370081  0.81716795    -0.11600
C2808       C  0.70092848  0.20515823  0.81705232    -0.13160
C2809       C  0.70497231  0.43609846  0.81949904    -0.11600
C2810       C  0.68013084  0.45459482  0.81883691    -0.13160
C2811       C  0.95050063  0.18500192  0.80590931    -0.11600
C2812       C  0.92530002  0.20362661  0.80543586    -0.13160
C2813       C  0.87693179  0.26274733  0.74033709    -0.11600
C2814       C  0.88335556  0.28594938  0.74668533    -0.13160
C2815       C  0.57878970  0.30848690  0.69665704    -0.11600
C2816       C  0.59821425  0.33049269  0.69707827    -0.13160
C2817       C  0.82650660  0.06060576  0.69375936    -0.11600
C2818       C  0.84576679  0.08275011  0.69293791    -0.13160
C2819       C  0.85294356  0.31397741  0.69104279    -0.11600
C2820       C  0.82589647  0.33093808  0.69089618    -0.13160
C2821       C  0.57509091  0.07947692  0.68922352    -0.11600
C2822       C  0.60159787  0.06213958  0.69054237    -0.13160
C2823       C  0.47395362  0.11711708  0.75070786    -0.11600
C2824       C  0.48562579  0.13919727  0.74466439    -0.13160
C2825       C  0.59536823  0.20907849  0.62367141    -0.11600
C2826       C  0.57309398  0.20564758  0.63389544    -0.13160
C2827       C  0.82652902  0.21057045  0.61813260    -0.11600
C2828       C  0.85017601  0.20823788  0.62880294    -0.13160
C2829       C  0.81101937  0.44906982  0.63230093    -0.11600
C2830       C  0.83131783  0.45025034  0.62122869    -0.13160
C2831       C  0.55972140  0.45283558  0.62444701    -0.11600
C2832       C  0.58329940  0.45104808  0.63524791    -0.13160
C2833       C  0.56225556  0.34592988  0.56275778    -0.11600
C2834       C  0.58254918  0.32431000  0.56274412    -0.13160
C2835       C  0.82916507  0.07226552  0.55815767    -0.11600
C2836       C  0.80794898  0.09355536  0.55781781    -0.13160
C2837       C  0.58075830  0.09396947  0.56961438    -0.11600
C2838       C  0.55596828  0.07545939  0.56978833    -0.13160
C2839       C  0.83203898  0.34194149  0.55383864    -0.11600
C2840       C  0.80622854  0.32373936  0.55343239    -0.13160
C2841       C  0.75625566  0.26644280  0.50654818    -0.11600
C2842       C  0.74637592  0.29015237  0.50150056    -0.13160
C2843       C  0.86685958  0.38875712  0.49577103    -0.11600
C2844       C  0.85327940  0.40970700  0.50239291    -0.13160
C2845       C  0.48109934  0.04056380  0.50211266    -0.11600
C2846       C  0.48732140  0.01827061  0.50945490    -0.13160
C2847       C  0.94797955  0.22236306  0.44432839    -0.11600
C2848       C  0.96929118  0.20134883  0.44493638    -0.13160
C2849       C  0.69190323  0.46889018  0.44490190    -0.11600
C2850       C  0.71352334  0.44813386  0.44523029    -0.13160
C2851       C  0.94039689  0.45208008  0.44027106    -0.11600
C2852       C  0.96552191  0.47054220  0.44077921    -0.13160
C2853       C  0.69763155  0.19836622  0.44383607    -0.11600
C2854       C  0.72234448  0.21716390  0.44382191    -0.13160
C2855       C  0.62462756  0.15344579  0.50794392    -0.11600
C2856       C  0.63531411  0.13199122  0.50104784    -0.13160
C2857       C  0.91910508  0.06548710  0.87773600    -0.11600
C2858       C  0.94114426  0.06706886  0.86728456    -0.13160
C2859       C  0.69198628  0.05896345  0.88703087    -0.11600
C2860       C  0.66885166  0.06190604  0.87627984    -0.13160
C2861       C  0.70474306  0.31964054  0.88865143    -0.11600
C2862       C  0.72517909  0.31944858  0.87757698    -0.13160
C2863       C  0.95222119  0.31444416  0.86690617    -0.11600
C2864       C  0.97610478  0.31466989  0.87760717    -0.13160
C2865       C  0.96361140  0.42935031  0.93965625    -0.11600
C2866       C  0.94437527  0.45151751  0.93966910    -0.13160
C2867       C  0.69242923  0.19932256  0.94882624    -0.11600
C2868       C  0.71335208  0.17805776  0.94838213    -0.13160
C2869       C  0.93695271  0.18172835  0.93176100    -0.11600
C2870       C  0.96297356  0.19941135  0.93222379    -0.13160
C2871       C  0.69118537  0.42989760  0.95175768    -0.11600
C2872       C  0.71751838  0.44767475  0.95142949    -0.13160
C2873       C  0.75974253  0.01580613  0.00171443    -0.11600
C2874       C  0.76724893  0.49136749  0.00628470    -0.13160
C2875       C  0.65989898  0.35798073  0.00610788    -0.11600
C2876       C  0.65015494  0.38021364  0.01255425    -0.13160
C2877       C  0.86386985  0.14437351  0.99959083    -0.11600
C2878       C  0.87484254  0.12268907  0.99288327    -0.13160
C2879       C  0.58009557  0.05312705  0.06421405    -0.11600
C2880       C  0.56094988  0.07532477  0.06424177    -0.13160
C2881       C  0.80984779  0.32617192  0.05871541    -0.11600
C2882       C  0.83038747  0.30471711  0.05795794    -0.13160
C2883       C  0.83343246  0.07412234  0.05371614    -0.11600
C2884       C  0.80696526  0.05647291  0.05407254    -0.13160
C2885       C  0.56082524  0.30495958  0.07270138    -0.11600
C2886       C  0.58669457  0.32274077  0.07330006    -0.13160
C2887       C  0.51399909  0.24219249  0.00653323    -0.11600
C2888       C  0.50792581  0.26261590  0.99773181    -0.13160
C2889       C  0.55195892  0.18740104  0.12552670    -0.11600
C2890       C  0.57738525  0.18853284  0.13554017    -0.13160
C2891       C  0.80442598  0.18595829  0.12971766    -0.11600
C2892       C  0.82368361  0.18522531  0.11827948    -0.13160
C2893       C  0.82572893  0.44895270  0.12058389    -0.11600
C2894       C  0.84813169  0.44759651  0.13164403    -0.13160
C2895       C  0.57437246  0.44416064  0.13609551    -0.11600
C2896       C  0.59768524  0.44408427  0.12605697    -0.13160
C2897       C  0.57475261  0.05530104  0.20156684    -0.11600
C2898       C  0.59476475  0.07723383  0.20132122    -0.13160
C2899       C  0.82125167  0.30663651  0.18949388    -0.11600
C2900       C  0.84161337  0.32827175  0.18985619    -0.13160
C2901       C  0.82001385  0.07642333  0.19136874    -0.11600
C2902       C  0.84508993  0.05804040  0.19156852    -0.13160
C2903       C  0.56690873  0.32474782  0.19465488    -0.11600
C2904       C  0.59335528  0.30738074  0.19450860    -0.13160
C2905       C  0.94015978  0.32297048  0.36927849    -0.11600
C2906       C  0.92063288  0.32468413  0.38041267    -0.13160
C2907       C  0.70942728  0.32197098  0.38365540    -0.11600
C2908       C  0.68439367  0.31968213  0.37353754    -0.13160
C2909       C  0.61822860  0.28581101  0.24954887    -0.11600
C2910       C  0.61296617  0.26282661  0.24268800    -0.13160
C2911       C  0.53944867  0.34263117  0.24609310    -0.11600
C2912       C  0.55202480  0.36547682  0.24099348    -0.13160
C2913       C  0.96432680  0.07511947  0.38281977    -0.11600
C2914       C  0.94144120  0.07013351  0.37210508    -0.13160
C2915       C  0.68538606  0.07777626  0.38390835    -0.11600
C2916       C  0.70702600  0.07536547  0.37336250    -0.13160
C2917       C  0.76761666  0.14250305  0.24846522    -0.11600
C2918       C  0.75851874  0.12119711  0.25587105    -0.13160
C2919       C  0.95063216  0.20275485  0.31006328    -0.11600
C2920       C  0.93132977  0.18059833  0.30941453    -0.13160
C2921       C  0.67708802  0.43456014  0.31535518    -0.11600
C2922       C  0.69588504  0.45693297  0.31490959    -0.13160
C2923       C  0.71027796  0.19053486  0.31852897    -0.11600
C2924       C  0.68566206  0.20929783  0.31967523    -0.13160
C2925       C  0.91504384  0.44567717  0.31106960    -0.11600
C2926       C  0.94008131  0.42689240  0.31086410    -0.13160
C2927       C  0.90849881  0.99345088  0.24912201    -0.11600
C2928       C  0.90967244  0.01646141  0.25603855    -0.13160
C2929       C  0.74800078  0.59697809  0.26569187     0.44130
N2930       N  0.76512977  0.56178049  0.28118790     0.03020
C2931       C  0.77161157  0.58607057  0.35967631    -0.04860
H2932       H  0.79310791  0.67547103  0.33038065     0.08510
C2933       C  0.91774853  0.62520538  0.30478748    -0.05210
Co2934     Co  0.74258885  0.57546425  0.31322397     0.74180
N2935       N  0.78055257  0.63189845  0.32206955    -0.24390
Co2936     Co  0.82380141  0.60546290  0.33248388     0.74070
C2937       C  0.90780794  0.65449816  0.31006062     0.44230
N2938       N  0.88207565  0.55792302  0.28676696     0.02630
N2939       N  0.86756894  0.62384489  0.31928212     0.02740
N2940       N  0.71930573  0.56666106  0.34629023    -0.45240
H2941       H  0.71308685  0.61941857  0.28411071     0.08500
N2942       N  0.74954960  0.62038125  0.31475860     0.03020
N2943       N  0.86727768  0.57958586  0.34319122     0.02760
C2944       C  0.91301283  0.56610610  0.35948794     0.44370
N2945       N  0.84826004  0.54979162  0.28022073    -0.23840
C2946       C  0.70800414  0.51285074  0.31823785    -0.04760
N2947       N  0.77026247  0.57265485  0.26725525    -0.44950
N2948       N  0.87976368  0.58205862  0.35778202    -0.45170
C2949       C  0.71815039  0.98346500  0.31326141     0.44140
N2950       N  0.74769743  0.57402122  0.33711658     0.03010
N2951       N  0.84660952  0.00518688  0.30379462    -0.23870
N2952       N  0.74183510  0.57831330  0.28922810    -0.24360
N2953       N  0.87745355  0.51689571  0.31129785     0.02650
H2954       H  0.83331717  0.96068297  0.29712269     0.08540
H2955       H  0.94675224  0.54264292  0.34079709     0.08580
N2956       N  0.77856099  0.58576437  0.34459677    -0.24410
N2957       N  0.89108843  0.60759222  0.31101646    -0.24020
N2958       N  0.75907306  0.51388133  0.30432353     0.03020
C2959       C  0.73549803  0.66579788  0.31644381     0.44410
C2960       C  0.85314772  0.54162145  0.26578392    -0.05270
N2961       N  0.89125878  0.56375869  0.33504035    -0.24020
H2962       H  0.94204740  0.61820669  0.29806513     0.08560
N2963       N  0.72158975  0.63980936  0.31151715    -0.45240
H2964       H  0.83155809  0.52906315  0.25908432     0.08550
C2965       C  0.88998998  0.97107336  0.31166086     0.44250
C2966       C  0.72884008  0.60053247  0.28024598    -0.04770
Co2967     Co  0.80407754  0.53235967  0.29234394     0.73820
N2968       N  0.91146077  0.55168884  0.27767028    -0.44960
C2969       C  0.73255176  0.57307065  0.36069204     0.44510
N2970       N  0.74976475  0.98581221  0.30454511    -0.44950
Co2971     Co  0.88611894  0.56172353  0.31102066     0.73890
C2972       C  0.92096947  0.55416616  0.34441073    -0.05280
C2973       C  0.77443370  0.66068964  0.32368144    -0.04840
N2974       N  0.73515313  0.53021877  0.31213610    -0.24370
N2975       N  0.87691838  0.65187599  0.31912054    -0.45130
H2976       H  0.79007295  0.59626488  0.36858124     0.08520
C2977       C  0.85199910  0.97606844  0.30340681    -0.05250
Cl2978     Cl  0.81437830  0.56866483  0.31244296    -0.48250
C2979       C  0.89510330  0.54151146  0.26412445     0.44280
H2980       H  0.68402336  0.51996800  0.32509555     0.08490
N2981       N  0.90414910  0.99739918  0.31591331    -0.44960
C2982       C  0.97243863  0.90641813  0.31107894     0.44130
N2983       N  0.52131522  0.88044460  0.31933546     0.03020
C2984       C  0.63239266  0.78486924  0.27687625    -0.04860
H2985       H  0.04200803  0.78030883  0.25897141     0.08510
C2986       C  0.99015080  0.74117136  0.32612170    -0.05210
Co2987     Co  0.56487247  0.85335950  0.29369297     0.74180
N2988       N  0.53032766  0.80274831  0.28001561    -0.24390
Co2989     Co  0.56718631  0.77934940  0.29631510     0.74070
C2990       C  0.97459140  0.72861943  0.31168161     0.44230
N2991       N  0.51686258  0.80828850  0.34497894     0.02630
N2992       N  0.52062130  0.75872691  0.30683377     0.02740
N2993       N  0.61470888  0.82858811  0.26721341    -0.45240
H2994       H  0.98540726  0.89710418  0.28578980     0.08500
N2995       N  0.52141680  0.83039093  0.28222269     0.03020
N2996       N  0.60628305  0.75678427  0.31100819     0.02760
C2997       C  0.65391737  0.73004568  0.31955765     0.44370
N2998       N  0.51843503  0.83705354  0.34427522    -0.23840
C2999       C  0.63646691  0.89448698  0.30108461    -0.04760
N3000       N  0.99223019  0.89715051  0.32394461    -0.44950
N3001       N  0.63548893  0.74006504  0.30661208    -0.45170
C3002       C  0.65325546  0.90850291  0.31492146     0.44140
N3003       N  0.60680115  0.82699073  0.28207541     0.03010
N3004       N  0.60411160  0.83583316  0.34678619    -0.23870
N3005       N  0.52214146  0.87846963  0.30424098    -0.24360
N3006       N  0.60290830  0.80711075  0.34808305     0.02650
H3007       H  0.64270279  0.86873408  0.35683110     0.08540
H3008       H  0.63874844  0.73812535  0.34476026     0.08580
N3009       N  0.61308417  0.80019616  0.28705390    -0.24410
N3010       N  0.51863538  0.75948508  0.32199570    -0.24020
N3011       N  0.60739740  0.87930727  0.32125021     0.03020
C3012       C  0.01753169  0.82702647  0.25752519     0.44410
C3013       C  0.98843774  0.84812078  0.35185330    -0.05270
N3014       N  0.60422741  0.75812255  0.32606170    -0.24020
H3015       H  0.98319927  0.73581222  0.33780763     0.08560
N3016       N  0.50963981  0.84389516  0.26949264    -0.45240
H3017       H  0.98262365  0.87104903  0.35363465     0.08550
C3018       C  0.65261411  0.82015764  0.36222561     0.44250
C3019       C  0.99229608  0.89438783  0.29796522    -0.04770
Co3020     Co  0.56297656  0.85868855  0.33322029     0.73820
N3021       N  0.98727989  0.79878131  0.35302216    -0.44960
C3022       C  0.63057291  0.80246596  0.26316019     0.44510
N3023       N  0.63336734  0.89848789  0.32694002    -0.44950
Co3024     Co  0.56037331  0.78278183  0.33565099     0.73890
C3025       C  0.63316092  0.74160635  0.33255907    -0.05280
C3026       C  0.02894917  0.79871038  0.26458345    -0.04840
N3027       N  0.60831484  0.87683143  0.30612410    -0.24370
N3028       N  0.99535113  0.74002691  0.30025995    -0.45130
H3029       H  0.63215688  0.76123363  0.27684558     0.08520
C3030       C  0.63452390  0.84605090  0.35545007    -0.05250
Cl3031     Cl  0.56370652  0.81856107  0.31483521    -0.48250
C3032       C  0.96765186  0.82274379  0.35733853     0.44280
H3033       H  0.64221221  0.89868896  0.28915265     0.08490
N3034       N  0.63155572  0.79674271  0.35737849    -0.44960
C3035       C  0.54866598  0.89671186  0.23808170     0.44130
N3036       N  0.00377815  0.92278317  0.22643007     0.03020
C3037       C  0.51102470  0.96108485  0.14910377    -0.04860
H3038       H  0.49658412  0.54679025  0.18499355     0.08510
C3039       C  0.85969310  0.50589723  0.19849156    -0.05210
Co3040     Co  0.53066834  0.93892721  0.19510355     0.74180
N3041       N  0.50395665  0.50070623  0.18926514    -0.24390
Co3042     Co  0.95865841  0.98118836  0.17568563     0.74070
C3043       C  0.87169124  0.53420555  0.19332619     0.44230
N3044       N  0.89155391  0.94500754  0.21845472     0.02630
N3045       N  0.91506790  0.50315036  0.18719701     0.02740
N3046       N  0.55693887  0.93457854  0.16253125    -0.45240
H3047       H  0.59145803  0.90756484  0.21929429     0.08500
N3048       N  0.53146596  0.98521038  0.19692412     0.03020
N3049       N  0.91344861  0.95925161  0.16324921     0.02760
C3050       C  0.87214095  0.94553650  0.14551378     0.44370
N3051       N  0.91957407  0.92995943  0.22582681    -0.23840
C3052       C  0.55122562  0.87634358  0.18749248    -0.04760
N3053       N  0.51193121  0.90664428  0.23868401    -0.44950
N3054       N  0.90565417  0.96076728  0.14821774    -0.45170
C3055       C  0.53942887  0.84818955  0.19305336     0.44140
N3056       N  0.52904464  0.94390382  0.17145210     0.03010
N3057       N  0.91195378  0.88326788  0.20198561    -0.23870
N3058       N  0.53519630  0.92925262  0.21878271    -0.24360
N3059       N  0.88415014  0.89819867  0.19453854     0.02650
H3060       H  0.92028217  0.83726301  0.20643675     0.08540
H3061       H  0.83177516  0.92412880  0.16278225     0.08580
N3062       N  0.50192676  0.95956870  0.16395987    -0.24410
N3063       N  0.88802201  0.48808404  0.19411461    -0.24020
N3064       N  0.99939104  0.88023350  0.20109193     0.03020
C3065       C  0.54918804  0.53004852  0.19996829     0.44410
C3066       C  0.92634922  0.94189678  0.23983990    -0.05270
N3067       N  0.88622146  0.94463088  0.17050603    -0.24020
H3068       H  0.83233778  0.49925727  0.20334744     0.08560
N3069       N  0.55971232  0.50206449  0.20319142    -0.45240
H3070       H  0.95104072  0.93693703  0.24764334     0.08550
C3071       C  0.86654461  0.85353823  0.19190414     0.44250
C3072       C  0.56495117  0.91287692  0.22513762    -0.04770
Co3073     Co  0.95814388  0.90379842  0.21388716     0.73820
N3074       N  0.88002638  0.96765664  0.22662096    -0.44960
C3075       C  0.54727017  0.94417863  0.14827259     0.44510
N3076       N  0.00760455  0.85193077  0.20170188    -0.44950
Co3077     Co  0.88658712  0.94353803  0.19442888     0.73890
C3078       C  0.85885631  0.93510687  0.16018531    -0.05280
C3079       C  0.51264303  0.52911920  0.19064097    -0.04840
N3080       N  0.52535823  0.89472672  0.19317235    -0.24370
N3081       N  0.90573928  0.53119478  0.18602480    -0.45130
H3082       H  0.99564247  0.97391000  0.14029085     0.08520
C3083       C  0.90340894  0.85476282  0.20101026    -0.05250
Cl3084     Cl  0.95868573  0.94195118  0.19463874    -0.48250
C3085       C  0.90045583  0.96712655  0.24027125     0.44280
H3086       H  0.57809912  0.88252179  0.18212710     0.08490
N3087       N  0.85582880  0.88126959  0.18847053    -0.44960
C3088       C  0.62274907  0.73333951  0.23797008     0.44130
N3089       N  0.66770397  0.71199460  0.22536328     0.03020
C3090       C  0.64420485  0.67304332  0.14820722    -0.04860
H3091       H  0.66820829  0.58663920  0.18402476     0.08510
C3092       C  0.80676229  0.62884746  0.19765472    -0.05210
Co3093     Co  0.63425181  0.69393778  0.19430310     0.74180
N3094       N  0.66090861  0.63268527  0.18822499    -0.24390
Co3095     Co  0.70276505  0.65280998  0.17455442     0.74070
C3096       C  0.79381035  0.60038343  0.19266593     0.44230
N3097       N  0.77841198  0.68974993  0.21729866     0.02630
N3098       N  0.74915115  0.63119331  0.18608865     0.02740
N3099       N  0.60064604  0.69853241  0.16181414    -0.45240
H3100       H  0.57573176  0.71906587  0.21981060     0.08500
N3101       N  0.63507918  0.64779767  0.19603452     0.03020
N3102       N  0.74527158  0.67481343  0.16179458     0.02760
C3103       C  0.78375448  0.68740893  0.14395419     0.44370
N3104       N  0.75225492  0.70507572  0.22462604    -0.23840
C3105       C  0.60896337  0.75608070  0.18714231    -0.04760
N3106       N  0.66115351  0.72778944  0.23762576    -0.44950
N3107       N  0.75042792  0.67257618  0.14678299    -0.45170
C3108       C  0.62114876  0.78447230  0.19261605     0.44140
N3109       N  0.63072722  0.68932694  0.17066512     0.03010
N3110       N  0.75324260  0.75126529  0.20056913    -0.23870
N3111       N  0.63505866  0.70313324  0.21805854    -0.24360
N3112       N  0.77972198  0.73654009  0.19319432     0.02650
H3113       H  0.74553641  0.79710514  0.20524738     0.08540
H3114       H  0.82733947  0.70934158  0.16132808     0.08580
N3115       N  0.65653603  0.67424757  0.16305723    -0.24410
N3116       N  0.77748578  0.64649371  0.19301263    -0.24020
N3117       N  0.66513455  0.75342726  0.19999764     0.03020
C3118       C  0.61914780  0.60279297  0.19924592     0.44410
C3119       C  0.74932001  0.69377810  0.23881424    -0.05270
N3120       N  0.77397491  0.68962742  0.16904006    -0.24020
H3121       H  0.83498387  0.63563565  0.20265699     0.08560
N3122       N  0.60892669  0.63063585  0.20250618    -0.45240
H3123       H  0.72656434  0.69906064  0.24664389     0.08550
C3124       C  0.79635976  0.78137729  0.19078811     0.44250
C3125       C  0.60490425  0.71626489  0.22508685    -0.04770
Co3126     Co  0.71024075  0.73070982  0.21266016     0.73820
N3127       N  0.79200231  0.66735822  0.22568299    -0.44960
C3128       C  0.60746143  0.68948886  0.14751155     0.44510
N3129       N  0.65575529  0.78148193  0.20082173    -0.44950
Co3130     Co  0.77828076  0.69107168  0.19317078     0.73890
C3131       C  0.79961606  0.69848414  0.15868920    -0.05280
C3132       C  0.65315510  0.60415287  0.18967582    -0.04840
N3133       N  0.63740394  0.73831948  0.19241627    -0.24370
N3134       N  0.75828285  0.60312528  0.18519964    -0.45130
H3135       H  0.65785772  0.66061896  0.13931483     0.08520
C3136       C  0.76128980  0.77981036  0.19970584    -0.05250
Cl3137     Cl  0.70626176  0.69215000  0.19360489    -0.48250
C3138       C  0.77536647  0.66851717  0.23949167     0.44280
H3139       H  0.58074923  0.74925518  0.18214507     0.08490
N3140       N  0.80672734  0.75373395  0.18734455    -0.44960
C3141       C  0.84860389  0.68591595  0.10514847     0.44130
N3142       N  0.89303560  0.70127292  0.09029004     0.03020
C3143       C  0.91273502  0.67276095  0.01264480    -0.04860
H3144       H  0.91715862  0.58498702  0.04207693     0.08510
C3145       C  0.54941143  0.63027618  0.06945357    -0.05210
Co3146     Co  0.87421589  0.68662618  0.05692117     0.74180
N3147       N  0.90924381  0.62956246  0.04966548    -0.24390
Co3148     Co  0.95534195  0.65575533  0.04075240     0.74070
C3149       C  0.53820268  0.60180052  0.06324941     0.44230
N3150       N  0.51127477  0.69062912  0.08833182     0.02630
N3151       N  0.99804002  0.63390126  0.05401640     0.02740
N3152       N  0.85237825  0.67773325  0.02168563    -0.45240
H3153       H  0.81326644  0.66478748  0.08486767     0.08500
N3154       N  0.87966614  0.64220796  0.05650931     0.03020
N3155       N  0.99773581  0.68363629  0.03175454     0.02760
C3156       C  0.51987133  0.71808544  0.01738666     0.44370
N3157       N  0.98153220  0.70346794  0.09496312    -0.23840
C3158       C  0.84511994  0.75076937  0.05141231    -0.04760
N3159       N  0.88209220  0.70159605  0.10474274    -0.44950
N3160       N  0.49549412  0.69485605  0.01764230    -0.45170
C3161       C  0.85520934  0.77919665  0.05801490     0.44140
N3162       N  0.87985228  0.68420193  0.03259072     0.03010
N3163       N  0.98415979  0.75109232  0.07345442    -0.23870
N3164       N  0.86818455  0.68689171  0.08097234    -0.24360
N3165       N  0.51407366  0.73828191  0.06706167     0.02650
H3166       H  0.97638656  0.79482378  0.08214944     0.08540
H3167       H  0.55448001  0.73845131  0.03777622     0.08580
N3168       N  0.91471846  0.67792221  0.02761906    -0.24410
N3169       N  0.52275413  0.64875874  0.06305247    -0.24020
N3170       N  0.89589513  0.74730046  0.06729910     0.03020
C3171       C  0.86154217  0.59770014  0.05495132     0.44410
C3172       C  0.98805178  0.70192123  0.11027823    -0.05270
N3173       N  0.52131983  0.69881746  0.04110104    -0.24020
H3174       H  0.57410699  0.63621941  0.07707751     0.08560
N3175       N  0.85080161  0.62421870  0.05963204    -0.45240
H3176       H  0.97040360  0.71224046  0.11878187     0.08550
C3177       C  0.53292530  0.78217123  0.07006850     0.44250
C3178       C  0.83902239  0.67630295  0.08937915    -0.04770
Co3179     Co  0.93836101  0.72615745  0.08169255     0.73820
N3180       N  0.53839535  0.68065020  0.09830920    -0.44960
C3181       C  0.87151186  0.67039093  0.00869913     0.44510
N3182       N  0.88645642  0.77532280  0.06791476    -0.44950
Co3183     Co  0.51810451  0.69389129  0.06488809     0.73890
C3184       C  0.53722171  0.72061106  0.03299879    -0.05280
C3185       C  0.90027545  0.60094155  0.04814675    -0.04840
N3186       N  0.87188763  0.73234660  0.05779449    -0.24370
N3187       N  0.00653878  0.60570039  0.05356893    -0.45130
H3188       H  0.93599357  0.66164897  0.00684057     0.08520
C3189       C  0.99341461  0.77929276  0.07585181    -0.05250
Cl3190     Cl  0.94639515  0.69050336  0.06117892    -0.48250
C3191       C  0.52548083  0.68640381  0.11234479     0.44280
H3192       H  0.82009051  0.74461569  0.04401514     0.08490
N3193       N  0.54396484  0.75597402  0.06510153    -0.44960
C3194       C  0.79780942  0.94853504  0.10780870     0.44130
N3195       N  0.75267093  0.93073405  0.09276254     0.03020
C3196       C  0.72409868  0.95711639  0.01499498    -0.04860
H3197       H  0.72134007  0.54454568  0.04220404     0.08510
C3198       C  0.59276475  0.49808282  0.06928812    -0.05210
Co3199     Co  0.76725482  0.94467089  0.05976759     0.74180
N3200       N  0.73031909  0.50098694  0.05140183    -0.24390
Co3201     Co  0.68395761  0.97364568  0.04223585     0.74070
C3202       C  0.60262095  0.52666008  0.06321142     0.44230
N3203       N  0.63399487  0.93901219  0.08930293     0.02630
N3204       N  0.64218159  0.49499686  0.05458956     0.02740
N3205       N  0.78521862  0.95416361  0.02553468    -0.45240
H3206       H  0.82955390  0.96944109  0.08777950     0.08500
N3207       N  0.76103429  0.98904402  0.05887335     0.03020
N3208       N  0.64240945  0.94471002  0.03284385     0.02760
C3209       C  0.63192303  0.90511305  0.01976743     0.44370
N3210       N  0.66490059  0.92680133  0.09656163    -0.23840
C3211       C  0.79562791  0.88099614  0.05412167    -0.04760
N3212       N  0.76541678  0.93163048  0.10734491    -0.44950
N3213       N  0.64893368  0.93146419  0.01965323    -0.45170
C3214       C  0.78667792  0.85229042  0.06022444     0.44140
N3215       N  0.75902854  0.94614399  0.03561909     0.03010
N3216       N  0.66156651  0.87833185  0.07547127    -0.23870
N3217       N  0.77559257  0.94532401  0.08360472    -0.24360
N3218       N  0.63030011  0.89057275  0.06870618     0.02650
H3219       H  0.67210947  0.83481733  0.08443010     0.08540
H3220       H  0.60034145  0.88410295  0.03926699     0.08580
N3221       N  0.72351099  0.95150640  0.02991122    -0.24410
N3222       N  0.61893699  0.97986108  0.06328628    -0.24020
N3223       N  0.74867048  0.88377200  0.07017902     0.03020
C3224       C  0.77884695  0.53336028  0.05617712     0.44410
C3225       C  0.65996411  0.92870712  0.11178067    -0.05270
N3226       N  0.62150480  0.92842459  0.04190412    -0.24020
H3227       H  0.56941548  0.49194656  0.07669993     0.08560
N3228       N  0.79043019  0.50733267  0.06170706    -0.45240
H3229       H  0.67891984  0.91901791  0.12070492     0.08550
C3230       C  0.61314977  0.84648869  0.07177686     0.44250
C3231       C  0.80504395  0.95741357  0.09214098    -0.04770
Co3232     Co  0.70742824  0.90444174  0.08401753     0.73820
N3233       N  0.60761342  0.94885093  0.09872102    -0.44960
C3234       C  0.76466283  0.96234316  0.01239089     0.44510
N3235       N  0.75775806  0.85560969  0.07024610    -0.44950
Co3236     Co  0.62518484  0.93480241  0.06571844     0.73890
C3237       C  0.61238129  0.90348926  0.03431469    -0.05280
C3238       C  0.73897685  0.52939862  0.04911423    -0.04840
N3239       N  0.77067160  0.89911304  0.06087709    -0.24370
N3240       N  0.63314209  0.52311795  0.05400191    -0.45130
H3241       H  0.69968266  0.96775806  0.00879372     0.08520
C3242       C  0.65356958  0.85000218  0.07791602    -0.05250
Cl3243     Cl  0.69619336  0.93959759  0.06323993    -0.48250
C3244       C  0.62220522  0.94370723  0.11306415     0.44280
H3245       H  0.81833610  0.88739070  0.04647031     0.08490
N3246       N  0.60050711  0.87243776  0.06662402    -0.44960
C3247       C  0.50218865  0.78676827  0.98689315     0.44130
N3248       N  0.52479841  0.82125436  0.97266777     0.03020
C3249       C  0.53864605  0.80059968  0.89418604    -0.04860
H3250       H  0.54813992  0.70900173  0.92323796     0.08510
C3251       C  0.67749305  0.75327865  0.95491379    -0.05210
Co3252     Co  0.50600654  0.81064236  0.93930632     0.74180
N3253       N  0.54005694  0.75311069  0.93137572    -0.24390
Co3254     Co  0.58665126  0.77781246  0.92349737     0.74070
C3255       C  0.66763559  0.72480991  0.94836333     0.44230
N3256       N  0.64242886  0.81954513  0.97297729     0.02630
N3257       N  0.62800316  0.75671109  0.93840225     0.02740
N3258       N  0.98709551  0.82210247  0.90526847    -0.45240
H3259       H  0.96848732  0.76634091  0.96632365     0.08500
N3260       N  0.50981709  0.76621109  0.93738955     0.03020
N3261       N  0.63284157  0.80267306  0.91541218     0.02760
C3262       C  0.67844790  0.81850147  0.90127513     0.44370
N3263       N  0.60770661  0.82698459  0.97768328    -0.23840
C3264       C  0.97548973  0.87441604  0.93439999    -0.04760
N3265       N  0.52648782  0.81004156  0.98678378    -0.44950
N3266       N  0.64501835  0.80261036  0.90112831    -0.45170
C3267       C  0.98637526  0.90287197  0.94073544     0.44140
N3268       N  0.51393246  0.81318962  0.91571674     0.03010
N3269       N  0.61466583  0.87480322  0.95554827    -0.23870
N3270       N  0.50164793  0.80604420  0.96315474    -0.24360
N3271       N  0.64466679  0.86181002  0.94916426     0.02650
H3272       H  0.60657211  0.91962612  0.96271139     0.08540
H3273       H  0.71193141  0.83952382  0.92198904     0.08580
N3274       N  0.54430056  0.80017609  0.90957529    -0.24410
N3275       N  0.65142521  0.77168712  0.94810249    -0.24020
N3276       N  0.52596054  0.87068095  0.95029009     0.03020
C3277       C  0.49087014  0.72228998  0.93466114     0.44410
C3278       C  0.60933267  0.83187290  0.99268537    -0.05270
N3279       N  0.65691378  0.81704761  0.92504079    -0.24020
H3280       H  0.70194992  0.75944630  0.96260269     0.08560
N3281       N  0.47971637  0.74868711  0.93927631    -0.45240
H3282       H  0.58641064  0.84345223  0.99844759     0.08550
C3283       C  0.66311465  0.90626392  0.95060366     0.44250
C3284       C  0.98547499  0.78423751  0.97117967    -0.04770
Co3285     Co  0.56780202  0.84893860  0.96404744     0.73820
N3286       N  0.66979274  0.82450253  0.98412491    -0.44960
C3287       C  0.50095256  0.81547370  0.89143228     0.44510
N3288       N  0.51745187  0.89888223  0.95069278    -0.44950
Co3289     Co  0.64946084  0.81729268  0.94886005     0.73890
C3290       C  0.68665975  0.82792288  0.91710725    -0.05280
C3291       C  0.53076932  0.72484396  0.92917821    -0.04840
N3292       N  0.50175211  0.85586589  0.94100697    -0.24370
N3293       N  0.63722672  0.72862748  0.93805602    -0.45130
H3294       H  0.55690155  0.78971883  0.88607943     0.08520
C3295       C  0.62379483  0.90341691  0.95697208    -0.05250
Cl3296     Cl  0.57756477  0.81380551  0.94379539    -0.48250
C3297       C  0.65056991  0.83239916  0.99696751     0.44280
H3298       H  0.95112678  0.86851121  0.92660398     0.08490
N3299       N  0.67396065  0.87956275  0.94624353    -0.44960
C3300       C  0.89381458  0.59839050  0.98529580     0.44130
N3301       N  0.88393972  0.55872878  0.97210954     0.03020
C3302       C  0.85856452  0.57813029  0.89344774    -0.04860
H3303       H  0.85038517  0.67036643  0.92175334     0.08510
C3304       C  0.72888905  0.62355961  0.95320552    -0.05210
Co3305     Co  0.89816450  0.56971820  0.93893988     0.74180
N3306       N  0.86130235  0.62653424  0.93021294    -0.24390
Co3307     Co  0.81445750  0.60070237  0.92217889     0.74070
C3308       C  0.73727131  0.65233171  0.94705126     0.44230
N3309       N  0.76751159  0.55802900  0.97100093     0.02630
N3310       N  0.77482502  0.62106935  0.93671627     0.02740
N3311       N  0.91253895  0.55764032  0.90520738    -0.45240
H3312       H  0.92282922  0.62041030  0.96547745     0.08500
N3313       N  0.89309373  0.61396900  0.93636731     0.03020
N3314       N  0.76836459  0.57478778  0.91383838     0.02760
C3315       C  0.72145357  0.55798393  0.89927560     0.44370
N3316       N  0.80320031  0.55147008  0.97609519    -0.23840
C3317       C  0.93054753  0.50651840  0.93466039    -0.04760
N3318       N  0.87809294  0.57160914  0.98546573    -0.44950
N3319       N  0.75411744  0.57458973  0.89944046    -0.45170
C3320       C  0.92145466  0.97779514  0.94077854     0.44140
N3321       N  0.88706707  0.56634499  0.91530968     0.03010
N3322       N  0.79431567  0.50315818  0.95414098    -0.23870
N3323       N  0.90358111  0.57557383  0.96286699    -0.24360
N3324       N  0.76293363  0.51555958  0.94735783     0.02650
H3325       H  0.80412248  0.95900249  0.96238009     0.08540
H3326       H  0.69143764  0.53665734  0.91961168     0.08580
N3327       N  0.85535711  0.57880837  0.90877500    -0.24410
N3328       N  0.75353140  0.60558272  0.94619297    -0.24020
N3329       N  0.88217512  0.50914812  0.94988323     0.03020
C3330       C  0.91042319  0.65802533  0.93337058     0.44410
C3331       C  0.80416380  0.54663280  0.99109828    -0.05270
N3332       N  0.74620309  0.56003218  0.92319940    -0.24020
H3333       H  0.70650572  0.61700501  0.96096394     0.08560
N3334       N  0.92324599  0.63186953  0.93811353    -0.45240
H3335       H  0.82864921  0.53565054  0.99707546     0.08550
C3336       C  0.74534734  0.97106634  0.94950135     0.44250
C3337       C  0.91212400  0.60063602  0.97048865    -0.04770
Co3338     Co  0.84158939  0.52998543  0.96299663     0.73820
N3339       N  0.74217138  0.55201853  0.98178106    -0.44960
C3340       C  0.89623766  0.56375794  0.89118840     0.44510
N3341       N  0.89159630  0.98109424  0.95032194    -0.44950
Co3342     Co  0.75686275  0.56003565  0.94693356     0.73890
C3343       C  0.71573295  0.54853149  0.91498164    -0.05280
C3344       C  0.86937467  0.65489830  0.92785784    -0.04840
N3345       N  0.90461157  0.52453876  0.94097992    -0.24370
N3346       N  0.76550725  0.64916640  0.93674134    -0.45130
H3347       H  0.83872562  0.58857299  0.88507629     0.08520
C3348       C  0.78583277  0.97460162  0.95604706    -0.05250
Cl3349     Cl  0.82768315  0.56493224  0.94258222    -0.48250
C3350       C  0.76379298  0.54393760  0.99471471     0.44280
H3351       H  0.95342965  0.51289846  0.92708566     0.08490
N3352       N  0.73331344  0.99742628  0.94461265    -0.44960
C3353       C  0.66270403  0.58029594  0.39738486     0.44130
N3354       N  0.62347509  0.59799247  0.41356824     0.03020
C3355       C  0.61966250  0.58105666  0.49115000    -0.04860
H3356       H  0.61315491  0.97913930  0.45818970     0.08510
C3357       C  0.97996893  0.52358714  0.43670600    -0.05210
Co3358     Co  0.65128774  0.58407417  0.44582304     0.74180
N3359       N  0.62258879  0.52464127  0.45313335    -0.24390
Co3360     Co  0.57952165  0.54686474  0.46406284     0.74070
C3361       C  0.99209570  0.99468673  0.44129507     0.44230
N3362       N  0.50641631  0.58723898  0.42005576     0.02630
N3363       N  0.53419064  0.52516063  0.45090612     0.02740
N3364       N  0.66217349  0.60832707  0.47845005    -0.45240
H3365       H  0.70237727  0.55946173  0.41639306     0.08500
N3366       N  0.65080830  0.53875730  0.44643798     0.03020
N3367       N  0.53804390  0.56902701  0.47540462     0.02760
C3368       C  0.99486615  0.56369853  0.49245921     0.44370
N3369       N  0.53436807  0.60042127  0.41258311    -0.23840
C3370       C  0.68137815  0.64605394  0.45012674    -0.04760
N3371       N  0.63030841  0.59714265  0.39866177    -0.44950
N3372       N  0.53252652  0.56052948  0.48952168    -0.45170
C3373       C  0.67051494  0.67454288  0.44437707     0.44140
N3374       N  0.64855891  0.58643330  0.46974202     0.03010
N3375       N  0.53739813  0.64464738  0.43654355    -0.23870
N3376       N  0.65029500  0.58341702  0.42196760    -0.24360
N3377       N  0.51006609  0.63103097  0.44428764     0.02650
H3378       H  0.54600794  0.68977142  0.43050319     0.08540
H3379       H  0.94573338  0.57876818  0.47490864     0.08580
N3380       N  0.62204247  0.57093317  0.47671609    -0.24410
N3381       N  0.50734697  0.54088173  0.44320265    -0.24020
N3382       N  0.62606752  0.64405481  0.43677153     0.03020
C3383       C  0.66669929  0.99383648  0.44493249     0.44410
C3384       C  0.52571565  0.59813997  0.39737977    -0.05270
N3385       N  0.50641707  0.57990823  0.46829271    -0.24020
H3386       H  0.95329440  0.53069804  0.43056646     0.08560
N3387       N  0.67838452  0.52109084  0.44151422    -0.45240
H3388       H  0.54248043  0.60749986  0.38831465     0.08550
C3389       C  0.99449290  0.67623457  0.44515576     0.44250
C3390       C  0.67622294  0.57147350  0.41272128    -0.04770
Co3391     Co  0.58019526  0.62230665  0.42455288     0.73820
N3392       N  0.97866934  0.57581740  0.41073664    -0.44960
C3393       C  0.64531590  0.60636725  0.49220729     0.44510
N3394       N  0.63637087  0.67194092  0.43583776    -0.44950
Co3395     Co  0.50683116  0.58532828  0.44401678     0.73890
C3396       C  0.97670088  0.57659128  0.47811104    -0.05280
C3397       C  0.63003901  0.99599337  0.45279160    -0.04840
N3398       N  0.65242030  0.62867477  0.44483693    -0.24370
N3399       N  0.52540997  0.99691517  0.45042100    -0.45130
H3400       H  0.59777590  0.57507124  0.49915993     0.08520
C3401       C  0.53000333  0.67333017  0.43659968    -0.05250
Cl3402     Cl  0.57935913  0.58467373  0.44454647    -0.48250
C3403       C  0.98899390  0.58155383  0.39629861     0.44280
H3404       H  0.70821918  0.63903036  0.45617595     0.08490
N3405       N  0.98317531  0.64922348  0.44931304    -0.44960
C3406       C  0.90210975  0.82834948  0.39469773     0.44130
N3407       N  0.86784211  0.84834561  0.41172097     0.03020
C3408       C  0.87263610  0.83517907  0.48943338    -0.04860
H3409       H  0.87040426  0.73150939  0.45861284     0.08510
C3410       C  0.73313882  0.77032300  0.43824770    -0.05210
Co3411     Co  0.90037703  0.83701097  0.44354421     0.74180
N3412       N  0.87657824  0.77684332  0.45247272    -0.24390
Co3413     Co  0.83381733  0.79870200  0.46358523     0.74070
C3414       C  0.74739233  0.74220258  0.44336387     0.44230
N3415       N  0.75426454  0.83410059  0.42005559     0.02630
N3416       N  0.78838402  0.77479723  0.45160470     0.02740
N3417       N  0.90419271  0.86692294  0.47496082    -0.45240
H3418       H  0.94616372  0.80916835  0.41282299     0.08500
N3419       N  0.90320249  0.79143440  0.44511374     0.03020
N3420       N  0.79299684  0.82199633  0.47483916     0.02760
C3421       C  0.75317338  0.81619263  0.49297745     0.44370
N3422       N  0.78033753  0.84834656  0.41213709    -0.23840
C3423       C  0.92774947  0.89949914  0.44644214    -0.04760
N3424       N  0.87055943  0.84553242  0.39665666    -0.44950
N3425       N  0.79047046  0.81613356  0.48944274    -0.45170
C3426       C  0.91472646  0.92749975  0.44083043     0.44140
N3427       N  0.89831640  0.84189353  0.46746885     0.03010
N3428       N  0.78290875  0.89347918  0.43550862    -0.23870
N3429       N  0.89638442  0.83459545  0.41963379    -0.24360
N3430       N  0.75711430  0.87909430  0.44364337     0.02650
H3431       H  0.78886415  0.93886016  0.42947286     0.08540
H3432       H  0.70031815  0.82604996  0.47604253     0.08580
N3433       N  0.87646422  0.82403630  0.47528478    -0.24410
N3434       N  0.75999192  0.78900697  0.44391211    -0.24020
N3435       N  0.87118756  0.89578904  0.43410612     0.03020
C3436       C  0.92174616  0.74686932  0.44431929     0.44410
C3437       C  0.77092050  0.84530871  0.39708254    -0.05270
N3438       N  0.75945973  0.82986039  0.46807306    -0.24020
H3439       H  0.70549257  0.77608500  0.43238260     0.08560
N3440       N  0.93140995  0.77426602  0.44017773    -0.45240
H3441       H  0.78611595  0.85524852  0.38775006     0.08550
C3442       C  0.73967887  0.92375388  0.44491171     0.44250
C3443       C  0.91974076  0.82140855  0.40978713    -0.04770
Co3444     Co  0.82540232  0.87213953  0.42307277     0.73820
N3445       N  0.72685176  0.82127410  0.41116650    -0.44960
C3446       C  0.88780065  0.86457709  0.48881752     0.44510
N3447       N  0.87983649  0.92395690  0.43288074    -0.44950
Co3448     Co  0.75677666  0.83341772  0.44392765     0.73890
C3449       C  0.73173721  0.82601775  0.47861289    -0.05280
C3450       C  0.88570783  0.74845618  0.45261056    -0.04840
N3451       N  0.89920560  0.88132755  0.44173167    -0.24370
N3452       N  0.78131338  0.74628311  0.45191884    -0.45130
H3453       H  0.85409384  0.82695308  0.49812558     0.08520
C3454       C  0.77422888  0.92192933  0.43573838    -0.05250
Cl3455     Cl  0.82906044  0.83523797  0.44340366    -0.48250
C3456       C  0.73596707  0.82695366  0.39658511     0.44280
H3457       H  0.95534253  0.89333774  0.45222327     0.08490
N3458       N  0.73006951  0.89648385  0.44920549    -0.44960
C3459       C  0.85941565  0.93555970  0.51170424     0.44130
N3460       N  0.90265694  0.94677917  0.52947660     0.03020
C3461       C  0.89301702  0.96912034  0.60801252    -0.04860
H3462       H  0.90626263  0.56170032  0.57591181     0.08510
C3463       C  0.54259897  0.52418944  0.56106317    -0.05210
Co3464     Co  0.87211230  0.95595417  0.56075585     0.74180
N3465       N  0.89896157  0.51617972  0.57003170    -0.24390
Co3466     Co  0.94446743  0.49439004  0.58272833     0.74070
C3467       C  0.53022634  0.55130704  0.56757041     0.44230
N3468       N  0.51120317  0.96723501  0.53840022     0.02630
N3469       N  0.98764252  0.51887447  0.57240952     0.02740
N3470       N  0.84575050  0.94570991  0.59367081    -0.45240
H3471       H  0.81000824  0.94134531  0.52895974     0.08500
N3472       N  0.87194592  0.50196762  0.56145477     0.03020
N3473       N  0.99081170  0.97070073  0.59420499     0.02760
C3474       C  0.53432321  0.95444706  0.61073255     0.44370
N3475       N  0.98573032  0.95147034  0.53016682    -0.23840
C3476       C  0.84825930  0.89254482  0.56376698    -0.04760
N3477       N  0.89738560  0.93910896  0.51504783    -0.44950
N3478       N  0.00014371  0.96966861  0.60920503    -0.45170
C3479       C  0.85948244  0.86552657  0.55666415     0.44140
N3480       N  0.87348708  0.95627855  0.58494300     0.03010
N3481       N  0.99159530  0.90166226  0.55214716    -0.23870
N3482       N  0.86985314  0.95241035  0.53630302    -0.24360
N3483       N  0.51934357  0.91590858  0.56002985     0.02650
H3484       H  0.98365454  0.85621396  0.54624885     0.08540
H3485       H  0.57319778  0.93693875  0.59192267     0.08580
N3486       N  0.90126338  0.97025585  0.59308442    -0.24410
N3487       N  0.51469715  0.50540191  0.56470360    -0.24020
N3488       N  0.90264202  0.89825843  0.55179526     0.03020
C3489       C  0.85452816  0.54697546  0.55982121     0.44410
C3490       C  0.97983904  0.96439725  0.51633397    -0.05270
N3491       N  0.51776290  0.95785182  0.58599022    -0.24020
H3492       H  0.56981571  0.51876524  0.55573213     0.08560
N3493       N  0.84441185  0.51962104  0.55538597    -0.45240
H3494       H  0.95793306  0.95868318  0.50757263     0.08550
C3495       C  0.53718284  0.87116330  0.56132506     0.44250
C3496       C  0.84029742  0.94462046  0.52605827    -0.04770
Co3497     Co  0.94610549  0.92394885  0.54089281     0.73820
N3498       N  0.51997623  0.99193392  0.53128507    -0.44960
C3499       C  0.85650798  0.95263473  0.60835027     0.44510
N3500       N  0.89304302  0.87049726  0.54913601    -0.44950
Co3501     Co  0.51652661  0.96121700  0.56219220     0.73890
C3502       C  0.54618264  0.94691184  0.59543310    -0.05280
C3503       C  0.89032196  0.54476599  0.56962221    -0.04840
N3504       N  0.87601476  0.91144686  0.56000673    -0.24370
N3505       N  0.99641521  0.54674610  0.57481547    -0.45130
H3506       H  0.90912760  0.98020119  0.61728452     0.08520
C3507       C  0.00032678  0.87314837  0.55223768    -0.05250
Cl3508     Cl  0.94471409  0.95869702  0.56181234    -0.48250
C3509       C  0.50097017  0.99177953  0.51731073     0.44280
H3510       H  0.82081758  0.89817143  0.56887121     0.08490
N3511       N  0.54766316  0.89846231  0.56563328    -0.44960
C3512       C  0.76056970  0.73682188  0.51189072     0.44130
N3513       N  0.72493460  0.71619774  0.52823044     0.03020
C3514       C  0.75894564  0.69580925  0.60625341    -0.04860
H3515       H  0.73465416  0.60466053  0.57518645     0.08510
C3516       C  0.59311896  0.64522938  0.56092572    -0.05210
Co3517     Co  0.76552470  0.70965979  0.55913433     0.74180
N3518       N  0.73999473  0.64981819  0.56850616    -0.24390
Co3519     Co  0.69887722  0.67234529  0.58150515     0.74070
C3520       C  0.60651888  0.61770888  0.56712531     0.44230
N3521       N  0.61810449  0.70239882  0.53817907     0.02630
N3522       N  0.65171656  0.64915045  0.57152624     0.02740
N3523       N  0.80248951  0.71855467  0.59140509    -0.45240
H3524       H  0.81356134  0.73567170  0.52933907     0.08500
N3525       N  0.76498747  0.66370028  0.55976318     0.03020
N3526       N  0.65737738  0.69671402  0.59341498     0.02760
C3527       C  0.61905389  0.71217192  0.61056029     0.44370
N3528       N  0.64210863  0.71712689  0.52966109    -0.23840
C3529       C  0.79185519  0.77251525  0.56243642    -0.04760
N3530       N  0.72569169  0.72520288  0.51395187    -0.44950
N3531       N  0.65211074  0.69651593  0.60842822    -0.45170
C3532       C  0.77951587  0.79973745  0.55543885     0.44140
N3533       N  0.77145459  0.70907654  0.58310326     0.03010
N3534       N  0.64688009  0.76656509  0.55153294    -0.23870
N3535       N  0.76006104  0.71364848  0.53496772    -0.24360
N3536       N  0.62103814  0.75323189  0.55991599     0.02650
H3537       H  0.65539204  0.81168918  0.54531411     0.08540
H3538       H  0.57523947  0.73124676  0.59243825     0.08580
N3539       N  0.74581446  0.69542244  0.59150327    -0.24410
N3540       N  0.62276507  0.66338957  0.56428375    -0.24020
N3541       N  0.73507115  0.76737227  0.55012904     0.03020
C3542       C  0.78232954  0.61867231  0.55874189     0.44410
C3543       C  0.64052011  0.70555624  0.51544762    -0.05270
N3544       N  0.62863552  0.71056827  0.58568026    -0.24020
H3545       H  0.56449670  0.65130275  0.55600377     0.08560
N3546       N  0.79136402  0.64586222  0.55398970    -0.45240
H3547       H  0.65960158  0.71085871  0.50628702     0.08550
C3548       C  0.60620555  0.79851420  0.56129313     0.44250
C3549       C  0.78472965  0.72766870  0.52565537    -0.04770
Co3550     Co  0.68716764  0.74245495  0.53980835     0.73820
N3551       N  0.60280636  0.67943159  0.53076218    -0.44960
C3552       C  0.79619639  0.71140674  0.60612412     0.44510
N3553       N  0.74436029  0.79519750  0.54773079    -0.44950
Co3554     Co  0.62185043  0.70774302  0.56198640     0.73890
C3555       C  0.60328694  0.72121147  0.59554737    -0.05280
C3556       C  0.74867218  0.62124924  0.56847567    -0.04840
N3557       N  0.76304794  0.75394025  0.55846210    -0.24370
N3558       N  0.64269857  0.62141119  0.57389679    -0.45130
H3559       H  0.74565735  0.68449706  0.61563230     0.08520
C3560       C  0.63982324  0.79532957  0.55163746    -0.05250
Cl3561     Cl  0.69339985  0.70822574  0.56079235    -0.48250
C3562       C  0.61566623  0.67992439  0.51626924     0.44280
H3563       H  0.82012418  0.76663275  0.56775367     0.08490
N3564       N  0.59562883  0.77157622  0.56585586    -0.44960
C3565       C  0.87403039  0.70502492  0.64272604     0.44130
N3566       N  0.91320008  0.68557741  0.65975785     0.03020
C3567       C  0.91647030  0.72095600  0.73695190    -0.04860
H3568       H  0.93295671  0.80265057  0.70779031     0.08510
C3569       C  0.56695749  0.75360268  0.69094559    -0.05210
Co3570     Co  0.88883813  0.70199214  0.69137413     0.74180
N3571       N  0.92457903  0.75803928  0.70018700    -0.24390
Co3572     Co  0.96601925  0.73096825  0.71255728     0.74070
C3573       C  0.55553797  0.78234194  0.69635501     0.44230
N3574       N  0.53077231  0.69406897  0.66933736     0.02630
N3575       N  0.01221799  0.75134965  0.70253898     0.02740
N3576       N  0.86059292  0.72227135  0.72243887    -0.45240
H3577       H  0.83765072  0.72728082  0.66094224     0.08500
N3578       N  0.89660462  0.74591604  0.69130735     0.03020
N3579       N  0.00338497  0.70246325  0.72452313     0.02760
C3580       C  0.50743541  0.66335400  0.73836757     0.44370
N3581       N  0.00199811  0.68186542  0.66078459    -0.23840
C3582       C  0.85785893  0.63836537  0.69686908    -0.04760
N3583       N  0.90520801  0.68687891  0.64469150    -0.44950
N3584       N  0.49144930  0.68999211  0.73724983    -0.45170
C3585       C  0.86856260  0.60922315  0.69173253     0.44140
N3586       N  0.88782492  0.70690732  0.71545262     0.03010
N3587       N  0.99913843  0.63390053  0.68238121    -0.23390
N3588       N  0.88816937  0.70093866  0.66760893    -0.24360
N3589       N  0.52777944  0.64663685  0.69056294     0.02650
H3590       H  0.99282029  0.58981829  0.67364738     0.08540
H3591       H  0.54526326  0.64080296  0.72122421     0.08580
N3592       N  0.92166178  0.71011906  0.72305302    -0.24410
N3593       N  0.53819667  0.73580664  0.69536491    -0.24020
N3594       N  0.90988616  0.64008183  0.68328156     0.03020
C3595       C  0.88117032  0.79087003  0.69078768     0.44410
C3596       C  0.51019628  0.68515342  0.64591820    -0.05270
N3597       N  0.52705832  0.68545174  0.71696303    -0.24020
H3598       H  0.59299403  0.74705334  0.68511967     0.08560
N3599       N  0.87006949  0.76448555  0.68574463    -0.45240
H3600       H  0.99299441  0.67663222  0.63617162     0.08550
C3601       C  0.54689110  0.60258388  0.68921827     0.44250
C3602       C  0.86236906  0.71401111  0.65780684    -0.04770
Co3603     Co  0.95570448  0.65970011  0.67121533     0.73820
N3604       N  0.55881001  0.70536291  0.66112911    -0.44960
C3605       C  0.87739376  0.73235005  0.73592163     0.44510
N3606       N  0.90073383  0.61193991  0.68327745    -0.44950
Co3607     Co  0.53200162  0.69078612  0.69316052     0.73890
C3608       C  0.53233239  0.66068923  0.72521256    -0.05280
C3609       C  0.91710371  0.78690521  0.70063701    -0.04840
N3610       N  0.88505632  0.65609891  0.69113343    -0.24370
N3611       N  0.52162178  0.77932591  0.70361493    -0.45130
H3612       H  0.94031208  0.73145594  0.74352977     0.08520
C3613       C  0.50865187  0.60550902  0.68084324    -0.05250
Cl3614     Cl  0.96055149  0.69582286  0.69180290    -0.48250
C3615       C  0.54755340  0.70096866  0.64631740     0.44280
H3616       H  0.83277869  0.64521946  0.70319722     0.08490
N3617       N  0.55701859  0.62892608  0.69451469    -0.44960
C3618       C  0.64493251  0.56608154  0.86250860     0.44130
N3619       N  0.60500473  0.55328603  0.84405729     0.03020
C3620       C  0.60695406  0.56943123  0.76718578    -0.04860
H3621       H  0.60334389  0.67407991  0.79955983     0.08510
C3622       C  0.96561313  0.63274327  0.81342351    -0.05210
Co3623     Co  0.63653329  0.56830664  0.81361929     0.74180
N3624       N  0.61095422  0.62836959  0.80491861    -0.24390
Co3625     Co  0.56784772  0.60668337  0.79190813     0.74070
C3626       C  0.97758474  0.66105501  0.80808015     0.44230
N3627       N  0.48984005  0.56717863  0.83251473     0.02630
N3628       N  0.52198682  0.62976418  0.80262283     0.02740
N3629       N  0.64784394  0.54240758  0.78213764    -0.45240
H3630       H  0.68738455  0.58739741  0.84602238     0.08500
N3631       N  0.63788882  0.61381771  0.81309747     0.03020
N3632       N  0.52649090  0.58492301  0.77880007     0.02760
C3633       C  0.98452199  0.59224020  0.76004752     0.44370
N3634       N  0.51664478  0.55251304  0.84080157    -0.23840
C3635       C  0.66568202  0.00625222  0.81103933    -0.04760
N3636       N  0.61155142  0.55104962  0.85913740    -0.44950
N3637       N  0.52230668  0.59323547  0.76443613    -0.45170
C3638       C  0.65341316  0.97804151  0.81620186     0.44140
N3639       N  0.63587613  0.56572726  0.78969326     0.03010
N3640       N  0.51954293  0.50962310  0.81650522    -0.23870
N3641       N  0.63308891  0.56799715  0.83737869    -0.24360
N3642       N  0.49311781  0.52437693  0.80794038     0.02650
H3643       H  0.52571049  0.96394938  0.82213331     0.08540
H3644       H  0.93357353  0.57973951  0.77555436     0.08580
N3645       N  0.61020117  0.58123637  0.78137053    -0.24410
N3646       N  0.49430587  0.61484734  0.80941467    -0.24020
N3647       N  0.60813635  0.50864020  0.82069161     0.03020
C3648       C  0.65492553  0.65863565  0.81553342     0.44410
C3649       C  0.50600174  0.55167445  0.85544445    -0.05270
N3650       N  0.49368452  0.57570058  0.78456494    -0.24020
H3651       H  0.93766645  0.62604471  0.81775050     0.08560
N3652       N  0.66534424  0.63109257  0.81948443    -0.45240
H3653       H  0.52087838  0.53963032  0.86469117     0.08550
C3654       C  0.97550672  0.97961572  0.80556062     0.44250
C3655       C  0.65955747  0.57704094  0.84815930    -0.04770
Co3656     Co  0.56218633  0.53058682  0.83071316     0.73820
N3657       N  0.96038239  0.57624567  0.84078376    -0.44960
C3658       C  0.63061072  0.54310915  0.76786851     0.44510
N3659       N  0.61792059  0.98079146  0.82245691    -0.44950
Co3660     Co  0.49209191  0.57016765  0.80862518     0.73890
C3661       C  0.96475477  0.58037823  0.77359377    -0.05280
C3662       C  0.61922752  0.65692399  0.80571705    -0.04840
N3663       N  0.63609014  0.52380212  0.81438708    -0.24370
N3664       N  0.51241388  0.65781723  0.80119328    -0.45130
H3665       H  0.58541634  0.57496806  0.75823635     0.08520
C3666       C  0.51082747  0.98114167  0.81562947    -0.05250
Cl3667     Cl  0.56456894  0.56906736  0.81134750    -0.48250
C3668       C  0.96902222  0.56764973  0.85536550     0.44280
H3669       H  0.69377598  0.01308548  0.80689472     0.08490
N3670       N  0.96567704  0.00720601  0.80149256    -0.44960
C3671       C  0.61035620  0.94920373  0.64847943     0.44130
N3672       N  0.65594280  0.93322977  0.66418900     0.03020
C3673       C  0.67199490  0.97094565  0.74159030    -0.04860
H3674       H  0.68417275  0.55382993  0.70628855     0.08510
C3675       C  0.81433333  0.50503377  0.68959162    -0.05210
Co3676     Co  0.63789231  0.94942141  0.69668647     0.74180
N3677       N  0.67336657  0.50767232  0.70274199    -0.24390
Co3678     Co  0.71802699  0.98291673  0.71466486     0.74070
C3679       C  0.80377015  0.53408471  0.69486848     0.44230
N3680       N  0.77559765  0.94374946  0.66971832     0.02630
N3681       N  0.76207504  0.50309095  0.70281975     0.02740
N3682       N  0.61356818  0.95874073  0.73049181    -0.45240
H3683       H  0.57710827  0.97063365  0.66786096     0.08500
N3684       N  0.64341765  0.99374253  0.69584134     0.03020
N3685       N  0.75829035  0.95498837  0.72615968     0.02760
C3686       C  0.77187708  0.91856950  0.74157291     0.44370
N3687       N  0.74522642  0.93096363  0.66237492    -0.23840
C3688       C  0.61058155  0.88526968  0.70267984    -0.04760
N3689       N  0.64371158  0.93301758  0.64945647    -0.44950
N3690       N  0.75155260  0.94372003  0.73989685    -0.45170
C3691       C  0.62144803  0.85662499  0.69691413     0.44140
N3692       N  0.64246805  0.95389515  0.72091603     0.03010
N3693       N  0.74838318  0.88431314  0.68485958    -0.23870
N3694       N  0.63173254  0.94778344  0.67283191    -0.24360
N3695       N  0.77774009  0.89775105  0.69226832     0.02650
H3696       H  0.74141793  0.83955380  0.67724117     0.08540
H3697       H  0.80698501  0.89581358  0.72337722     0.08580
N3698       N  0.67589569  0.96365628  0.72700215    -0.24410
N3699       N  0.78680989  0.98731349  0.69512803    -0.24020
N3700       N  0.66035590  0.88848355  0.68802115     0.03020
C3701       C  0.62850458  0.53830788  0.69232936     0.44410
C3702       C  0.75050949  0.93223726  0.64717802    -0.05270
N3703       N  0.78147623  0.93824303  0.71818016    -0.24020
H3704       H  0.83921926  0.49825173  0.68313330     0.08560
N3705       N  0.61617185  0.51107215  0.68967403    -0.45240
H3706       H  0.73176652  0.92220100  0.63830946     0.08550
C3707       C  0.79719445  0.85367301  0.69146298     0.44250
C3708       C  0.60221161  0.95874796  0.66389100    -0.04770
Co3709     Co  0.70218513  0.90884194  0.67456956     0.73820
N3710       N  0.80213818  0.95341709  0.66021663    -0.44960
C3711       C  0.63057923  0.96917576  0.74391970     0.44510
N3712       N  0.65198836  0.86028642  0.68776535    -0.44950
Co3713     Co  0.78137485  0.94208417  0.69388920     0.73890
C3714       C  0.79217241  0.91514780  0.72715284    -0.05280
C3715       C  0.66622872  0.53651659  0.70127020    -0.04840
N3716       N  0.63638239  0.90369319  0.69662048    -0.24370
N3717       N  0.77136129  0.53121267  0.70315705    -0.45130
H3718       H  0.69332069  0.98408471  0.74809954     0.08520
C3719       C  0.75807998  0.85589074  0.68369935    -0.05250
Cl3720     Cl  0.70967201  0.94584512  0.69473128    -0.48250
C3721       C  0.78797148  0.94735573  0.64582526     0.44280
H3722       H  0.58582870  0.89144378  0.70936881     0.08490
N3723       N  0.80756141  0.88044836  0.69606204    -0.44960
C3724       C  0.74554619  0.81834595  0.86333166     0.44130
N3725       N  0.78199690  0.83282142  0.84521716     0.03020
C3726       C  0.75784545  0.82110237  0.76718893    -0.04860
H3727       H  0.77263218  0.71573896  0.79874743     0.08510
C3728       C  0.91351526  0.75660437  0.81182004    -0.05210
Co3729     Co  0.74319219  0.82113047  0.81428544     0.74180
N3730       N  0.76586024  0.76127799  0.80440893    -0.24390
Co3731     Co  0.80522189  0.78365525  0.79149926     0.74070
C3732       C  0.89964855  0.72840747  0.80670264     0.44230
N3733       N  0.89504542  0.81974117  0.83223348     0.02630
N3734       N  0.85427386  0.75999399  0.80140376     0.02740
N3735       N  0.72505074  0.84988631  0.78285038    -0.45240
H3736       H  0.69938701  0.79912026  0.84614030     0.08500
N3737       N  0.74108804  0.77550968  0.81286244     0.03020
N3738       N  0.84243727  0.80653302  0.77865240     0.02760
C3739       C  0.87518518  0.80717589  0.75818907     0.44370
N3740       N  0.87040944  0.83321242  0.84118720    -0.23840
C3741       C  0.71525435  0.88366934  0.81265879    -0.04760
N3742       N  0.77865278  0.83342904  0.86038597    -0.44950
N3743       N  0.84053868  0.80184269  0.76384049    -0.45170
C3744       C  0.72965898  0.91140852  0.81807421     0.44140
N3745       N  0.73811275  0.82605177  0.79025639     0.03010
N3746       N  0.86143070  0.87885005  0.81814963    -0.23870
N3747       N  0.75208706  0.81913037  0.83811604    -0.24360
N3748       N  0.88489192  0.86493404  0.80882386     0.02650
H3749       H  0.85660055  0.92419745  0.82453772     0.08540
H3750       H  0.93166112  0.82046450  0.77249895     0.08580
N3751       N  0.75979716  0.80973220  0.78152275    -0.24410
N3752       N  0.88401989  0.77467954  0.80795852    -0.24020
N3753       N  0.77433104  0.87975744  0.82280672     0.03020
C3754       C  0.72530548  0.73049281  0.81517172     0.44410
C3755       C  0.88477569  0.83194809  0.85577403    -0.05270
N3756       N  0.87650205  0.81667072  0.78393496    -0.24020
H3757       H  0.94242583  0.76300675  0.81629926     0.08560
N3758       N  0.71575117  0.75787153  0.81940198    -0.45240
H3759       H  0.87227256  0.84259487  0.86552449     0.08550
C3760       C  0.90128557  0.90986847  0.80691426     0.44250
C3761       C  0.72776352  0.80914425  0.84861603    -0.04770
Co3762     Co  0.82231875  0.85654172  0.83212458     0.73820
N3763       N  0.92649531  0.80944760  0.84003494    -0.44960
C3764       C  0.73643867  0.84847299  0.76812726     0.44510
N3765       N  0.76616683  0.90782362  0.82458919    -0.44950
Co3766     Co  0.88591863  0.81933405  0.80821129     0.73890
C3767       C  0.90016895  0.81697388  0.77175019    -0.05280
C3768       C  0.75814250  0.73265416  0.80507086    -0.04840
N3769       N  0.74472721  0.86542573  0.81611148    -0.24370
N3770       N  0.86297949  0.73180116  0.80004980    -0.45130
H3771       H  0.77475596  0.81433541  0.75766136     0.08520
C3772       C  0.86971073  0.90745150  0.81765363    -0.05250
Cl3773     Cl  0.81431413  0.81999193  0.81169797    -0.48250
C3774       C  0.92161970  0.81597858  0.85495284     0.44280
H3775       H  0.68639537  0.87767560  0.80795521     0.08490
N3776       N  0.90976379  0.88267791  0.80214077    -0.44960
C3777       C  0.74686813  0.87429495  0.75910912    -0.11600
C3778       C  0.75868698  0.89464715  0.75139090    -0.13160
C3779       C  0.61633926  0.99380756  0.75242598    -0.11600
C3780       C  0.62007628  0.51663861  0.75945050    -0.13160
C3781       C  0.94865905  0.95531967  0.80459623    -0.11600
C3782       C  0.92658623  0.93471345  0.80507574    -0.13160
C3783       C  0.68030502  0.68370081  0.81716796    -0.11600
C3784       C  0.70092849  0.70515823  0.81705233    -0.13160
C3785       C  0.70497229  0.93609846  0.81949903    -0.11600
C3786       C  0.68013082  0.95459482  0.81883690    -0.13160
C3787       C  0.95050065  0.68500192  0.80590933    -0.11600
C3788       C  0.92530003  0.70362662  0.80543588    -0.13160
C3789       C  0.87693178  0.76274739  0.74033706    -0.11600
C3790       C  0.88335555  0.78594944  0.74668531    -0.13160
C3791       C  0.57878971  0.80848690  0.69665705    -0.11600
C3792       C  0.59821425  0.83049269  0.69707827    -0.13160
C3793       C  0.82650659  0.56060577  0.69375935    -0.11600
C3794       C  0.84576677  0.58275012  0.69293790    -0.13160
C3795       C  0.85294357  0.81397741  0.69104278    -0.11600
C3796       C  0.82589647  0.83093808  0.69089617    -0.13160
C3797       C  0.57509091  0.57947692  0.68922352    -0.11600
C3798       C  0.60159786  0.56213958  0.69054237    -0.13160
C3799       C  0.47395362  0.61711708  0.75070786    -0.11600
C3800       C  0.48562577  0.63919727  0.74466439    -0.13160
C3801       C  0.59536825  0.70907850  0.62367141    -0.11600
C3802       C  0.57309400  0.70564758  0.63389545    -0.13160
C3803       C  0.82652904  0.71057045  0.61813259    -0.11600
C3804       C  0.85017604  0.70823788  0.62880293    -0.13160
C3805       C  0.81101938  0.94906983  0.63230094    -0.11600
C3806       C  0.83131783  0.95025035  0.62122869    -0.13160
C3807       C  0.55972140  0.95283558  0.62444701    -0.11600
C3808       C  0.58329940  0.95104809  0.63524791    -0.13160
C3809       C  0.56225555  0.84592988  0.56275778    -0.11600
C3810       C  0.58254917  0.82430999  0.56274412    -0.13160
C3811       C  0.82916507  0.57226553  0.55815766    -0.11600
C3812       C  0.80794898  0.59355536  0.55781781    -0.13160
C3813       C  0.58075831  0.59396947  0.56961438    -0.11600
C3814       C  0.55596829  0.57545939  0.56978834    -0.13160
C3815       C  0.83203898  0.84194150  0.55383864    -0.11600
C3816       C  0.80622854  0.82373936  0.55343238    -0.13160
C3817       C  0.75625565  0.76644281  0.50654818    -0.11600
C3818       C  0.74637591  0.79015239  0.50150056    -0.13160
C3819       C  0.86685958  0.88875711  0.49577103    -0.11600
C3820       C  0.85327940  0.90970699  0.50239291    -0.13160
C3821       C  0.48109934  0.54056380  0.50211267    -0.11600
C3822       C  0.48732141  0.51827061  0.50945490    -0.13160
C3823       C  0.94797955  0.72236306  0.44432838    -0.11600
C3824       C  0.96929118  0.70134883  0.44493638    -0.13160
C3825       C  0.69190323  0.96889018  0.44490190    -0.11600
C3826       C  0.71352334  0.94813386  0.44523030    -0.13160
C3827       C  0.94039689  0.95208008  0.44027107    -0.11600
C3828       C  0.96552191  0.97054220  0.44077921    -0.13160
C3829       C  0.69763155  0.69836622  0.44383607    -0.11600
C3830       C  0.72234447  0.71716390  0.44382191    -0.13160
C3831       C  0.62462756  0.65344579  0.50794392    -0.11600
C3832       C  0.63531411  0.63199122  0.50104784    -0.13160
C3833       C  0.91910507  0.56548710  0.87773600    -0.11600
C3834       C  0.94114425  0.56706886  0.86728456    -0.13160
C3835       C  0.69198627  0.55896345  0.88703088    -0.11600
C3836       C  0.66885165  0.56190604  0.87627985    -0.13160
C3837       C  0.70474307  0.81964055  0.88865143    -0.11600
C3838       C  0.72517910  0.81944859  0.87757698    -0.13160
C3839       C  0.95222120  0.81444418  0.86690616    -0.11600
C3840       C  0.97610479  0.81466990  0.87760717    -0.13160
C3841       C  0.96361140  0.92935031  0.93965624    -0.11600
C3842       C  0.94437527  0.95151751  0.93966909    -0.13160
C3843       C  0.69242923  0.69932256  0.94882624    -0.11600
C3844       C  0.71335209  0.67805776  0.94838214    -0.13160
C3845       C  0.93695272  0.68172835  0.93176101    -0.11600
C3846       C  0.96297356  0.69941135  0.93222379    -0.13160
C3847       C  0.69118536  0.92989761  0.95175768    -0.11600
C3848       C  0.71751838  0.94767475  0.95142949    -0.13160
C3849       C  0.75974253  0.51580616  0.00171444    -0.11600
C3850       C  0.76724893  0.99136746  0.00628468    -0.13160
C3851       C  0.65989897  0.85798073  0.00610788    -0.11600
C3852       C  0.65015493  0.88021364  0.01255425    -0.13160
C3853       C  0.86386986  0.64437351  0.99959083    -0.11600
C3854       C  0.87484254  0.62268907  0.99288327    -0.13160
C3855       C  0.58009557  0.55312705  0.06421405    -0.11600
C3856       C  0.56094989  0.57532477  0.06424176    -0.13160
C3857       C  0.80984779  0.82617192  0.05871541    -0.11600
C3858       C  0.83038746  0.80471710  0.05795794    -0.13160
C3859       C  0.83343246  0.57412234  0.05371614    -0.11600
C3860       C  0.80696526  0.55647290  0.05407254    -0.13160
C3861       C  0.56082524  0.80495958  0.07270138    -0.11600
C3862       C  0.58669456  0.82274077  0.07330006    -0.13160
C3863       C  0.51399909  0.74219249  0.00653323    -0.11600
C3864       C  0.50792581  0.76261591  0.99773181    -0.13160
C3865       C  0.55195892  0.68740103  0.12552670    -0.11600
C3866       C  0.57738524  0.68853284  0.13554017    -0.13160
C3867       C  0.80442597  0.68595829  0.12971766    -0.11600
C3868       C  0.82368361  0.68522531  0.11827948    -0.13160
C3869       C  0.82572894  0.94895270  0.12058388    -0.11600
C3870       C  0.84813170  0.94759651  0.13164403    -0.13160
C3871       C  0.57437246  0.94416064  0.13609551    -0.11600
C3872       C  0.59768524  0.94408427  0.12605697    -0.13160
C3873       C  0.57475261  0.55530104  0.20156684    -0.11600
C3874       C  0.59476476  0.57723383  0.20132122    -0.13160
C3875       C  0.82125167  0.80663651  0.18949387    -0.11600
C3876       C  0.84161337  0.82827175  0.18985618    -0.13160
C3877       C  0.82001385  0.57642333  0.19136875    -0.11600
C3878       C  0.84508993  0.55804040  0.19156853    -0.13160
C3879       C  0.56690873  0.82474782  0.19465487    -0.11600
C3880       C  0.59335528  0.80738074  0.19450859    -0.13160
C3881       C  0.94015977  0.82297048  0.36927849    -0.11600
C3882       C  0.92063286  0.82468413  0.38041267    -0.13160
C3883       C  0.70942727  0.82197098  0.38365541    -0.11600
C3884       C  0.68439367  0.81968213  0.37353755    -0.13160
C3885       C  0.61822860  0.78581101  0.24954887    -0.11600
C3886       C  0.61296617  0.76282661  0.24268800    -0.13160
C3887       C  0.53944867  0.84263118  0.24609310    -0.11600
C3888       C  0.55202480  0.86547682  0.24099348    -0.13160
C3889       C  0.96432680  0.57511947  0.38281976    -0.11600
C3890       C  0.94144119  0.57013351  0.37210508    -0.13160
C3891       C  0.68538605  0.57777625  0.38390834    -0.11600
C3892       C  0.70702600  0.57536546  0.37336250    -0.13160
C3893       C  0.76761667  0.64250305  0.24846522    -0.11600
C3894       C  0.75851874  0.62119712  0.25587105    -0.13160
C3895       C  0.95063215  0.70275485  0.31006328    -0.11600
C3896       C  0.93132976  0.68059834  0.30941453    -0.13160
C3897       C  0.67708802  0.93456014  0.31535519    -0.11600
C3898       C  0.69588503  0.95693297  0.31490960    -0.13160
C3899       C  0.71027795  0.69053486  0.31852897    -0.11600
C3900       C  0.68566205  0.70929783  0.31967523    -0.13160
C3901       C  0.91504383  0.94567717  0.31106960    -0.11600
C3902       C  0.94008131  0.92689240  0.31086410    -0.13160
C3903       C  0.90849881  0.49345088  0.24912201    -0.11600
C3904       C  0.90967244  0.51646141  0.25603855    -0.13160
loop_ 
_geom_bond_atom_site_label_1 
_geom_bond_atom_site_label_2 
_geom_bond_distance 
_geom_bond_site_symmetry_2 
_ccdc_geom_bond_type 
C1           N19   1.350       .  A
C1           C38   1.458       .  S
C1          C966   1.454       .  S
N2           N19   1.329       .  A
N2           N24   1.319       .  A
N2          Co39   2.096       .  S
C3           N28   1.343       .  A
C3           C41   1.462       .  S
C3           H48   1.082       .  S
H4           C45   1.081       .  S
C5           N29   1.345       .  A
C5            C9   1.463       .  S
C5           H34   1.081       .  S
Co6          N24   2.090       .  S
Co6          N14   2.076       .  S
Co6          N46   2.091       .  S
Co6          N22   2.079       .  S
Co6         Cl50   2.464       .  S
N7           C45   1.344       .  A
N7           N14   1.317       .  A
N7           Co8   2.080       .  S
Co8          N11   2.096       .  S
Co8          N28   2.105       .  S
Co8          N15   2.081       .  S
Co8         Cl50   2.437       .  S
C9           N47   1.346       .  A
C9          C968   1.441       .  S
N10          N17   1.314       .  A
N10          N40   1.332       .  A
N10         Co43   2.115       .  S
N11          N29   1.327       .  A
N11          N47   1.324       .  A
N12          C41   1.345       .  A
N12          N22   1.323       .  A
H13          C38   1.079       .  S
N14          N35   1.323       .  A
N15          N33   1.321       .  A
N15          N20   1.325       .  A
C16          N20   1.348       .  A
C16          C44   1.458       .  S
C16         C962   1.442       .  S
N17          C32   1.328       .  A
N17         Co39   2.036       .  S
C18          N46   1.345       .  A
C18         C997   1.461   1_545  S
C18          H52   1.081       .  S
C21          N42   1.346       .  A
C21         C994   1.461       .  S
C21         C970   1.443       .  S
N22          N28   1.324       .  A
N23          C49   1.348       .  A
N23        N1001   1.324       .  A
N23       Co1015   2.122       .  S
N24          C38   1.345       .  A
N25         N999   1.324       .  A
N25        N1029   1.323   1_545  A
N25         Co43   2.076       .  S
H26          C49   1.081       .  S
H27          C44   1.082       .  S
N29         Co43   2.109       .  S
N30          N46   1.316       .  A
N30        N1018   1.325   1_545  A
N30         Co39   2.070       .  S
C31          N35   1.345       .  A
C31          C45   1.459       .  S
C31         C971   1.437       .  S
C32          C51   1.440       .  S
C32          H36   1.083       .  S
N33          C44   1.343       .  A
N33         Co43   2.091       .  S
C37          N53   1.345       .  A
C37          C49   1.467       .  S
C37         C973   1.444       .  S
Co39        N999   2.122       .  S
Co39        Cl50   2.429       .  S
N40          C51   1.363       .  A
C41         C964   1.436       .  S
N42        N1006   1.325       .  A
Co43        Cl50   2.467       .  S
C51         C976   1.445       .  S
N53        N1001   1.323       .  A
C54          N72   1.348       .  A
C54          C91   1.459       .  S
C54         C974   1.445       .  S
N55          N77   1.318       .  A
N55        N2024   1.326   1_455  A
N55         Co92   2.074       .  S
C56          N81   1.326       .  A
C56          C94   1.438       .  S
C56         H101   1.083       .  S
H57          C98   1.080       .  S
C58        N2034   1.342       .  A
C58          C62   1.460       .  S
C58          H87   1.082       .  S
Co59         N77   2.096       .  S
Co59         N67   2.039       .  S
Co59         N99   2.090       .  S
Co59         N75   2.154       .  S
Co59       Cl103   2.435       .  S
N60        C2050   1.354       .  A
N60          N67   1.319       .  A
N60         Co61   2.137       .  S
Co61         N64   2.089       .  S
Co61         N81   2.026       .  S
Co61         N68   2.077       .  S
Co61       Cl103   2.421       .  S
C62         N100   1.349       .  A
C62         C967   1.442       .  S
N63          N70   1.321       .  A
N63        N2045   1.324   1_455  A
N63         Co96   2.078       .  S
N64          N82   1.324       .  A
N64        N2052   1.326   1_455  A
N65          C94   1.366       .  A
N65          N75   1.334       .  A
H66          C91   1.081       .  S
N67          N88   1.315       .  A
N68          N86   1.316       .  A
N68          N73   1.324       .  A
C69          N73   1.344       .  A
C69          C97   1.459       .  S
C69         C972   1.437       .  S
N70        C2037   1.338   1_455  A
N70         Co92   2.080       .  S
C71          N99   1.341       .  A
C71          C74   1.459       .  S
C71         H105   1.082       .  S
N72        N2007   1.326       .  A
C74          N95   1.350       .  A
C74         C969   1.443       .  S
N75          N81   1.316       .  A
N76         C102   1.337       .  A
N76          N78   1.322       .  A
N76         Co92   2.072       .  S
N77        C2043   1.345   1_455  A
N78         N106   1.325       .  A
N78         Co96   2.090       .  S
H79         C102   1.082       .  S
H80          C97   1.081       .  S
N82        C2010   1.342   1_455  A
N82         Co96   2.102       .  S
N83          N95   1.326       .  A
N83          N99   1.322       .  A
N83         Co92   2.096       .  S
C84        N2040   1.334       .  A
C84          C98   1.479       .  S
C84        C2911   1.456       .  S
C85        N2022   1.338       .  A
C85         C104   1.452       .  S
C85          H89   1.082       .  S
N86          C97   1.345       .  A
N86         Co96   2.075       .  S
N88        C2036   1.334       .  A
C90         N106   1.348       .  A
C90         C102   1.449       .  S
C90         C956   1.429       .  S
C91        N2029   1.345       .  A
Co92       Cl103   2.439       .  S
N93         C104   1.347       .  A
N93        N2015   1.324       .  A
C94         C957   1.455       .  S
Co96       Cl103   2.448       .  S
C98        N2012   1.354       .  A
N100       N2016   1.326       .  A
C104        C953   1.427       .  S
C107        N125   1.332       .  A
C107        C144   1.475       .  S
C107        C960   1.457       .  S
N108       N2077   1.316       .  A
N108       N2082   1.317       .  A
N108       Co145   2.051       .  S
C109        N134   1.344       .  A
C109        C147   1.460       .  S
C109       H2106   1.082   1_455  S
H110        C151   1.082   1_655  S
C111        N135   1.331   1_545  A
C111        C115   1.438       .  S
C111        H140   1.082   1_545  S
Co112       N130   2.105       .  S
Co112       N120   2.127       .  S
Co112       N152   2.040       .  S
Co112       N128   2.068       .  S
Co112     Cl2108   2.449   1_455  S
N113        C151   1.340       .  A
N113       N1096   1.329   1_545  A
N113      Co3042   2.099   1_445  S
Co114       N121   2.097       .  S
Co114      N3041   2.099       .  S
Co114      N1093   2.084       .  S
Co114      N2086   2.078       .  S
Co114      Cl156   2.438       .  S
C115        N153   1.351       .  A
C115        C950   1.421       .  S
N116        N123   1.318       .  A
N116        N146   1.327       .  A
N116       Co149   2.090       .  S
N117        N135   1.316   1_545  A
N117        N153   1.326       .  A
N117      Co1090   2.084   1_545  S
N118        C147   1.343       .  A
N118        N128   1.322       .  A
H119        C144   1.082       .  S
N120       N1089   1.329       .  A
N120       N1117   1.331       .  A
N121        N139   1.325       .  A
N121        N126   1.324       .  A
C122        N126   1.348       .  A
C122        C150   1.453       .  S
C122        C942   1.429       .  S
N123        C138   1.347       .  A
N123       Co145   2.087       .  S
C124        N152   1.329       .  A
C124        C127   1.441       .  S
C124        H158   1.082       .  S
N125       N2060   1.316       .  A
C127       N2100   1.355       .  A
C127        C951   1.426       .  S
N128        N134   1.317       .  A
N129        C155   1.340       .  A
N129        N131   1.313       .  A
N129       Co145   2.069       .  S
N130        C144   1.357       .  A
N130       N2060   1.317       .  A
N131        N159   1.328       .  A
N131       Co149   2.080       .  S
H132        C155   1.082       .  S
H133        C150   1.082       .  S
N134      Co2066   2.078   1_455  S
N135      Co1125   2.042       .  S
N136        N148   1.327       .  A
N136       N2104   1.322       .  A
N136       Co145   2.123       .  S
C137        N141   1.357       .  A
C137        C151   1.454       .  S
C137        C945   1.451       .  S
C138        C157   1.454       .  S
C138        H142   1.080       .  S
N139        C150   1.337       .  A
N139       Co149   2.081       .  S
N141       N1096   1.331   1_545  A
C143        N159   1.351       .  A
C143        C155   1.453       .  S
C143        C948   1.442       .  S
Co145      Cl156   2.420       .  S
N146        C157   1.349       .  A
C147        C943   1.434       .  S
N148       C2079   1.355       .  A
Co149      N1111   2.042       .  S
Co149      Cl156   2.451       .  S
N152       N2088   1.322   1_455  A
H154       C2061   1.082       .  S
Cl156     Co2064   2.449       .  S
C157       C1951   1.451       .  S
C160        N178   1.331       .  A
C160        C197   1.476       .  S
C160        C958   1.455       .  S
N161        N178   1.316       .  A
N161        N183   1.318       .  A
N161       Co198   2.046       .  S
C162        N187   1.341       .  A
C162        C200   1.457       .  S
C162        H207   1.082       .  S
H163        C204   1.082       .  S
C164        N188   1.331       .  A
C164        C168   1.438       .  S
C164        H193   1.082       .  S
Co165       N183   2.108       .  S
Co165       N173   2.120       .  S
Co165       N205   2.044       .  S
Co165       N181   2.065       .  S
Co165      Cl209   2.452       .  S
N166        C204   1.341       .  A
N166        N173   1.328       .  A
N166       Co167   2.106       .  S
Co167       N170   2.081       .  S
Co167       N187   2.072       .  S
Co167       N174   2.116       .  S
Co167      Cl209   2.449       .  S
C168        N206   1.351       .  A
C168        C949   1.421       .  S
N169        N176   1.319       .  A
N169        N199   1.329       .  A
N169       Co202   2.099       .  S
N170        N188   1.316       .  A
N170        N206   1.326       .  A
N171        C200   1.341       .  A
N171        N181   1.321       .  A
H172        C197   1.082       .  S
N173        N194   1.330       .  A
N174        N192   1.325       .  A
N174        N179   1.329       .  A
C175        N179   1.353       .  A
C175        C203   1.460       .  S
C175        C939   1.452       .  S
N176        C191   1.346       .  A
N176       Co198   2.090       .  S
C177        N205   1.329       .  A
C177        C180   1.441       .  S
C177        H211   1.082       .  S
C180        N201   1.355       .  A
C180        C952   1.426       .  S
N181        N187   1.318       .  A
N182        C208   1.339       .  A
N182        N184   1.315       .  A
N182       Co198   2.065       .  S
N183        C197   1.357       .  A
N184        N212   1.328       .  A
N184       Co202   2.084       .  S
H185        C208   1.082       .  S
H186        C203   1.081       .  S
N188       Co202   2.043       .  S
N189        N201   1.327       .  A
N189        N205   1.322       .  A
N189       Co198   2.120       .  S
C190        N194   1.356       .  A
C190        C204   1.455       .  S
C190        C946   1.451       .  S
C191        C210   1.457       .  S
C191        H195   1.080       .  S
N192        C203   1.343       .  A
N192       Co202   2.098       .  S
C196        N212   1.352       .  A
C196        C208   1.452       .  S
C196        C947   1.441       .  S
Co198      Cl209   2.423       .  S
N199        C210   1.351       .  A
C200        C938   1.427       .  S
Co202      Cl209   2.450       .  S
C210        C965   1.455       .  S
C213        N231   1.348       .  A
C213        C250   1.464       .  S
C213        C940   1.452       .  S
N214        N231   1.327       .  A
N214        N236   1.321       .  A
N214       Co251   2.082       .  S
C215        N240   1.323       .  A
C215        C253   1.432       .  S
C215        H260   1.084       .  S
H216        C257   1.081       .  S
C217        N241   1.342       .  A
C217        C221   1.457       .  S
C217        H246   1.082       .  S
Co218       N236   2.111       .  S
Co218       N226   2.044       .  S
Co218       N258   2.098       .  S
Co218       N234   2.136       .  S
Co218      Cl262   2.471       .  S
N219        C257   1.352       .  A
N219        N226   1.324       .  A
N219       Co220   2.146       .  S
Co220       N223   2.071       .  S
Co220       N240   2.025       .  S
Co220       N227   2.103       .  S
Co220      Cl262   2.416       .  S
C221       N2211   1.348       .  A
C221        C928   1.439       .  S
N222        N252   1.319       .  A
N222       N2181   1.324   1_455  A
N222       Co255   2.068       .  S
N223        N259   1.325       .  A
N223       N2193   1.315       .  A
N224        C253   1.370       .  A
N224        N234   1.335       .  A
H225        C250   1.081       .  S
N226        N247   1.319       .  A
N227       N2197   1.316       .  A
N227       N2184   1.329       .  A
C228        N232   1.350   1_455  A
C228        C256   1.461       .  S
C228        C935   1.460       .  S
N229        C244   1.342       .  A
N229       N2174   1.324       .  A
N229       Co251   2.101       .  S
C230        N258   1.343       .  A
C230        C233   1.459       .  S
C230        H264   1.081       .  S
N232       N2179   1.329       .  A
C233        N254   1.349       .  A
C233        C930   1.442       .  S
N234        N240   1.311       .  A
N235        C261   1.344       .  A
N235       N2189   1.318       .  A
N235       Co251   2.084       .  S
N236        C250   1.348       .  A
N237        N265   1.317       .  A
N237       N2187   1.318   1_455  A
N237       Co255   2.048       .  S
H238        C261   1.082       .  S
H239        C256   1.079       .  S
N241       N2175   1.315   1_455  A
N241       Co255   2.081       .  S
N242        N254   1.325       .  A
N242        N258   1.327       .  A
N242       Co251   2.104       .  S
C243        N247   1.338       .  A
C243        C257   1.475       .  S
C243        C931   1.444       .  S
C244       C2215   1.461       .  S
C244        H248   1.082       .  S
N245        C256   1.349       .  A
N245       N2179   1.316   1_455  A
N245       Co255   2.089       .  S
C249        N265   1.335       .  A
C249       C2213   1.461   1_455  S
C249        C933   1.423       .  S
Co251      Cl262   2.444       .  S
N252        C263   1.342       .  A
C253        C925   1.449   1_554  S
Co255     Cl2214   2.449   1_455  S
N259       C2173   1.348       .  A
C261       C2201   1.461       .  S
Cl262     Co2207   2.449       .  S
C263       C2196   1.461   1_455  S
C263        C937   1.427       .  S
C266        N284   1.346       .  A
C266        C303   1.453       .  S
C266        C941   1.429       .  S
N267        N284   1.323       .  A
N267        N289   1.320       .  A
N267       Co304   2.072       .  S
C268        N293   1.323       .  A
C268        C306   1.427       .  S
C268        H313   1.085       .  S
H269        C310   1.081       .  S
C270       N1270   1.342       .  A
C270        C274   1.457   1_565  S
C270        H299   1.081       .  S
Co271       N289   2.080       .  S
Co271       N279   2.045       .  S
Co271       N311   2.093       .  S
Co271       N287   2.108       .  S
Co271      Cl315   2.458       .  S
N272        C310   1.352       .  A
N272       N1255   1.323   1_545  A
N272      Co1249   2.140   1_545  S
Co273       N293   2.028       .  S
Co273       N280   2.079       .  S
Co273      N1248   2.140       .  S
Co273      N1252   2.065       .  S
Co273      Cl315   2.423       .  S
C274        N312   1.348       .  A
C274        C927   1.439       .  S
N275        N282   1.325       .  A
N275        N305   1.320       .  A
N275       Co308   2.069       .  S
N276        N312   1.325   1_565  A
N276       N1270   1.315       .  A
N276      Co1249   2.065       .  S
N277        C306   1.365       .  A
N277        N287   1.329       .  A
H278        C303   1.082       .  S
N279       N1248   1.323       .  A
N279       N1276   1.319       .  A
N280        N298   1.316       .  A
N280        N285   1.326       .  A
C281        N285   1.339       .  A
C281        C309   1.457       .  S
C281        C924   1.454       .  S
N282        C297   1.344       .  A
N282       Co304   2.114       .  S
C283        N311   1.341       .  A
C283        C286   1.455       .  S
C283        H317   1.082       .  S
C286        N307   1.351       .  A
C286        C929   1.442       .  S
N287        N293   1.308       .  A
N288        C314   1.345       .  A
N288        N290   1.317       .  A
N288       Co304   2.077       .  S
N289        C303   1.340       .  A
N290        N318   1.317       .  A
N290       Co308   2.050       .  S
H291        C314   1.082       .  S
H292        C309   1.076       .  S
N294       C1246   1.342       .  A
N294       N1252   1.315       .  A
N294       Co308   2.085       .  S
N295        N307   1.327       .  A
N295        N311   1.327       .  A
N295       Co304   2.112       .  S
C296        N300   1.338       .  A
C296        C310   1.474       .  S
C296        C932   1.444       .  S
C297        C316   1.464       .  S
C297        H301   1.081       .  S
N298        C309   1.350       .  A
N298       Co308   2.090       .  S
N300       N1255   1.319   1_545  A
C302        N318   1.335       .  A
C302        C314   1.461       .  S
C302        C934   1.422       .  S
Co304      Cl315   2.437       .  S
N305        C316   1.343       .  A
C306        C922   1.436       .  S
Co308      Cl315   2.443       .  S
C316        C944   1.434       .  S
C319        N337   1.350       .  A
C319       C2308   1.461   1_455  S
C319        C936   1.461       .  S
N320        N337   1.329       .  A
N320        N342   1.317       .  A
N320       Co357   2.099       .  S
C321        N346   1.344       .  A
C321        C359   1.461       .  S
C321        H366   1.082       .  S
H322        C363   1.082       .  S
C323        N347   1.342       .  A
C323        C327   1.457       .  S
C323        H352   1.081       .  S
Co324       N342   2.096       .  S
Co324       N332   2.048       .  S
Co324       N364   2.083       .  S
Co324       N340   2.084       .  S
Co324      Cl368   2.451       .  S
N325        C363   1.345       .  A
N325        N332   1.318       .  A
N325       Co326   2.087       .  S
Co326       N329   2.104       .  S
Co326       N346   2.105       .  S
Co326       N333   2.087       .  S
Co326      Cl368   2.446       .  S
C327        N365   1.349       .  A
C327        C915   1.439       .  S
N328        N335   1.311       .  A
N328        N358   1.333       .  A
N328       Co361   2.124       .  S
N329        N347   1.326       .  A
N329        N365   1.325       .  A
N330       C2311   1.346       .  A
N330       N2292   1.323       .  A
H331        C356   1.079       .  S
N332        N353   1.317   1_455  A
N333        N351   1.321       .  A
N333        N338   1.327       .  A
C334        N338   1.349       .  A
C334        C362   1.459       .  S
C334        C909   1.447       .  S
N335        C350   1.323       .  A
N335       Co357   2.028       .  S
C336       N2316   1.343       .  A
C336        C339   1.458       .  S
C336        H370   1.081       .  S
C339       N2312   1.348       .  A
C339        C913   1.440       .  S
N340        N346   1.325       .  A
N340       N2282   1.323   1_455  A
N341        C367   1.352       .  A
N341        N343   1.324       .  A
N341       Co357   2.143       .  S
N342       C2308   1.350   1_455  A
N343        N371   1.319       .  A
N343       Co361   2.047       .  S
H344        C367   1.082       .  S
H345        C362   1.081       .  S
N347       Co361   2.092       .  S
N348        N360   1.325       .  A
N348        N364   1.316       .  A
N348       Co357   2.072       .  S
C349        N353   1.335       .  A
C349        C363   1.462   1_655  S
C349       C2870   1.424       .  S
C350        C369   1.434       .  S
C350        H354   1.084       .  S
N351        C362   1.345       .  A
N351       Co361   2.098       .  S
C355        N371   1.338       .  A
C355        C367   1.475       .  S
C355        C919   1.444       .  S
C356       N2294   1.350       .  A
C356       C2271   1.461       .  S
Co357      Cl368   2.421       .  S
N358        C369   1.368       .  A
C359       N2282   1.346   1_455  A
C359       C2864   1.439   1_455  S
N360       C2291   1.348   1_455  A
Co361      Cl368   2.469       .  S
N364       C2288   1.343   1_455  A
C369        C923   1.444   1_556  S
C372        N390   1.339       .  A
C372        C409   1.458       .  S
C372        C926   1.459       .  S
N373        N390   1.326       .  A
N373        N395   1.317       .  A
N373       Co410   2.083       .  S
C374        N399   1.343       .  A
C374        C412   1.461       .  S
C374        H419   1.081       .  S
H375        C416   1.081       .  S
C376        N400   1.341       .  A
C376        C380   1.456       .  S
C376        H405   1.081       .  S
Co377       N395   2.098       .  S
Co377       N385   2.046       .  S
Co377       N417   2.089       .  S
Co377       N393   2.079       .  S
Co377      Cl421   2.440       .  S
N378        C416   1.346       .  A
N378        N385   1.317       .  A
N378       Co379   2.081       .  S
Co379       N382   2.106       .  S
Co379       N399   2.108       .  S
Co379       N386   2.072       .  S
Co379      Cl421   2.442       .  S
C380        N418   1.350       .  A
C380        C916   1.439       .  S
N381        N388   1.308       .  A
N381        N411   1.330       .  A
N381       Co414   2.110       .  S
N382        N400   1.326       .  A
N382        N418   1.326       .  A
N383        C412   1.346       .  A
N383        N393   1.322       .  A
H384        C409   1.076       .  S
N385        N406   1.317       .  A
N386        N404   1.320       .  A
N386        N391   1.323       .  A
C387        N391   1.346       .  A
C387        C415   1.454       .  S
C387        C907   1.430       .  S
N388        C403   1.322       .  A
N388       Co410   2.025       .  S
C389        N417   1.343       .  A
C389       C1368   1.458   1_545  S
C389        H423   1.081       .  S
C392        N413   1.348       .  A
C392       C1365   1.458       .  S
C392        C914   1.440       .  S
N393        N399   1.325       .  A
N394       C1396   1.352   1_545  A
N394        N396   1.324       .  A
N394       Co410   2.140       .  S
N395        C409   1.352       .  A
N396       N1400   1.319   1_545  A
N396       Co414   2.049       .  S
H397        C420   1.081       .  S
H398        C415   1.082       .  S
N400       Co414   2.091       .  S
N401        N417   1.315       .  A
N401       N1389   1.325   1_545  A
N401       Co410   2.063       .  S
C402        N406   1.334       .  A
C402        C416   1.462       .  S
C402        C917   1.423       .  S
C403        C422   1.427       .  S
C403        H407   1.085       .  S
N404        C415   1.340       .  A
N404       Co414   2.080       .  S
C408        N424   1.338       .  A
C408        C420   1.475       .  S
C408        C920   1.445       .  S
Co410      Cl421   2.421       .  S
N411        C422   1.367       .  A
C412        C905   1.435       .  S
N413       N1377   1.325       .  A
Co414      Cl421   2.463       .  S
C420       N1370   1.352       .  A
C422        C921   1.435   1_556  S
N424       N1372   1.319       .  A
C425        N443   1.353       .  A
C425        C462   1.449       .  S
C425        C963   1.436       .  S
N426        N443   1.328       .  A
N426        N448   1.323       .  A
N426       Co463   2.108       .  S
C427        N452   1.344       .  A
C427        C465   1.452       .  S
C427        H472   1.077       .  S
H428        C469   1.082       .  S
C429       N2405   1.330       .  A
C429       C1409   1.438   1_545  S
C429        H458   1.082       .  S
Co430       N448   2.074       .  S
Co430       N438   2.078       .  S
Co430       N470   2.046       .  S
Co430       N446   2.089       .  S
Co430      Cl474   2.442       .  S
N431       C1445   1.338   1_545  A
N431        N438   1.314       .  A
N431       Co432   2.051       .  S
Co432       N435   2.126       .  S
Co432       N452   2.093       .  S
Co432       N439   2.029       .  S
Co432      Cl474   2.424       .  S
C433       N2423   1.358       .  A
C433       C1405   1.438       .  S
C433        C900   1.428       .  S
N434        N441   1.321       .  A
N434       N2416   1.324   1_455  A
N434       Co467   2.085       .  S
N435        N453   1.321       .  A
N435       N1447   1.329   1_545  A
N436        C465   1.352       .  A
N436        N446   1.329       .  A
H437        C462   1.081       .  S
N438        N459   1.324       .  A
N439        N457   1.314       .  A
N439        N444   1.309       .  A
C440       N2396   1.324       .  A
C440        C468   1.489       .  S
C440       C2845   1.443       .  S
N441        C456   1.346       .  A
N441       Co463   2.092       .  S
C442        N470   1.333       .  A
C442        C445   1.440       .  S
C442        H476   1.081       .  S
N444       C2392   1.324   1_455  A
C445        N466   1.355       .  A
C445        C901   1.431       .  S
N446        N452   1.316       .  A
N447        C473   1.338       .  A
N447        N449   1.327       .  A
N447       Co463   2.094       .  S
N448        C462   1.336       .  A
N449       N2429   1.325   1_455  A
N449       Co467   2.097       .  S
H450        C473   1.082       .  S
H451        C468   1.081       .  S
N453       C2381   1.330   1_455  A
N453       Co467   2.038       .  S
N454        N466   1.329       .  A
N454        N470   1.317       .  A
N454       Co463   2.100       .  S
C455       N1435   1.348       .  A
C455        C469   1.451       .  S
C455        C897   1.428       .  S
C456       C2427   1.461   1_455  S
C456        H460   1.082       .  S
N457       C2420   1.360   1_455  A
N457       Co467   2.126       .  S
N459       C1431   1.348   1_545  A
C461        N477   1.350       .  A
C461       C2425   1.452       .  S
C461        C896   1.434       .  S
Co463      Cl474   2.449       .  S
N464        C475   1.344       .  A
N464       N2386   1.324       .  A
C465        C904   1.453       .  S
Co467      Cl474   2.464       .  S
C468       N2409   1.360       .  A
C469       N1407   1.338       .  A
N471       C2385   1.358   1_455  A
N471       N1411   1.329       .  A
C473       C2413   1.452   1_455  S
C475       C2408   1.461       .  S
C475        C961   1.442       .  S
N477       N2401   1.325       .  A
C478        N496   1.347       .  A
C478        C515   1.453       .  S
C478        C954   1.427       .  S
N479        N496   1.324       .  A
N479        N501   1.323       .  A
N479       Co516   2.091       .  S
C480        N505   1.344       .  A
C480        C518   1.445       .  S
C480        H525   1.074       .  S
H481        C522   1.082       .  S
C482        N506   1.331       .  A
C482        C486   1.440       .  S
C482        H511   1.082       .  S
Co483       N501   2.081       .  S
Co483       N491   2.095       .  S
Co483       N523   2.037       .  S
Co483       N499   2.097       .  S
Co483      Cl527   2.425       .  S
N484        C522   1.337       .  A
N484        N491   1.314       .  A
N484       Co485   2.043       .  S
Co485       N488   2.129       .  S
Co485       N505   2.087       .  S
Co485       N492   2.035       .  S
Co485      Cl527   2.425       .  S
C486        N524   1.357       .  A
C486        C902   1.431       .  S
N487        N494   1.319       .  A
N487        N517   1.322       .  A
N487       Co520   2.074       .  S
N488        N506   1.321       .  A
N488        N524   1.329       .  A
N489        C518   1.354       .  A
N489        N499   1.330       .  A
H490        C515   1.081       .  S
N491        N512   1.326       .  A
N492        N510   1.310       .  A
N492        N497   1.305       .  A
C493        N497   1.318       .  A
C493        C521   1.487       .  S
C493        C890   1.429       .  S
N494        C509   1.341       .  A
N494       Co516   2.077       .  S
C495        N523   1.330       .  A
C495        C498   1.435       .  S
C495        H529   1.082       .  S
C498        N519   1.356       .  A
C498        C899   1.427       .  S
N499        N505   1.314       .  A
N500        C526   1.337       .  A
N500        N502   1.326       .  A
N500       Co516   2.086       .  S
N501        C515   1.338       .  A
N502        N530   1.324       .  A
N502       Co520   2.093       .  S
H503        C526   1.082       .  S
H504        C521   1.081       .  S
N506       Co520   2.038       .  S
N507        N519   1.329       .  A
N507        N523   1.315       .  A
N507       Co516   2.095       .  S
C508        N512   1.351       .  A
C508        C522   1.450       .  S
C508        C895   1.434       .  S
C509        C528   1.455       .  S
C509        H513   1.082       .  S
N510        C521   1.355       .  A
N510       Co520   2.104       .  S
C514        N530   1.348       .  A
C514        C526   1.451       .  S
C514        C898   1.429       .  S
Co516      Cl527   2.445       .  S
N517        C528   1.344       .  A
C518        C891   1.462       .  S
Co520      Cl527   2.461       .  S
C528        C955   1.429       .  S
C531        N549   1.320       .  A
C531        C568   1.492       .  S
C531        C892   1.446       .  S
N532        N549   1.308       .  A
N532        N554   1.312       .  A
N532       Co569   2.032       .  S
C533        N558   1.341       .  A
C533        C571   1.454       .  S
C533        H578   1.082       .  S
H534        C575   1.082       .  S
C535        N559   1.330       .  A
C535        C539   1.436       .  S
C535        H564   1.082       .  S
Co536       N554   2.131       .  S
Co536       N576   2.045       .  S
Co536       N552   2.102       .  S
Co536      N1520   2.110       .  S
Co536      Cl580   2.469       .  S
N537        C575   1.343       .  A
N537        N544   1.328       .  A
N537       Co538   2.111   1_545  S
Co538       N541   2.082   1_565  S
Co538      N1534   2.076       .  S
Co538      N1521   2.124       .  S
Co538     Cl1556   2.448       .  S
C539       N2529   1.351   1_455  A
C539        C886   1.419       .  S
N540        N570   1.330       .  A
N540       N2499   1.316   1_455  A
N540       Co573   2.087       .  S
N541        N577   1.326       .  A
N541       N2511   1.316       .  A
N542        C571   1.351       .  A
N542        N552   1.328       .  A
H543        C568   1.081       .  S
N544        N565   1.328       .  A
N544      Co1512   2.110   1_545  S
N545        N550   1.330       .  A
N545       N2515   1.325       .  A
N545      Co1514   2.124       .  S
C546       N2502   1.356       .  A
C546        C574   1.449       .  S
C546        C879   1.443       .  S
N547        C562   1.348       .  A
N547       N2492   1.316       .  A
N547       Co569   2.094       .  S
C548        N576   1.332       .  A
C548        C551   1.443       .  S
C548        H582   1.082       .  S
N550       C2498   1.356       .  A
C551        N572   1.359       .  A
C551        C887   1.442       .  S
N552        N558   1.321       .  A
N553        C579   1.340       .  A
N553       N2507   1.315       .  A
N553       Co569   2.063       .  S
N554        C568   1.361       .  A
N555        N583   1.327       .  A
N555       N2505   1.315   1_455  A
N555       Co573   2.088       .  S
H556        C579   1.082       .  S
H557        C574   1.082       .  S
N558      Co1514   2.076       .  S
N559       N2493   1.316   1_455  A
N559      Co1549   2.038   1_545  S
N560        N572   1.331       .  A
N560        N576   1.324       .  A
N560       Co569   2.143       .  S
C561        N565   1.352       .  A
C561        C575   1.458       .  S
C561        C883   1.447       .  S
C562       C2533   1.447       .  S
C562        H566   1.074       .  S
N563        C574   1.337       .  A
N563       N2497   1.325   1_455  A
N563       Co573   2.074       .  S
C567        N583   1.350       .  A
C567       C2531   1.454       .  S
C567        C881   1.438       .  S
Co569      Cl580   2.421       .  S
N570        C581   1.351       .  A
C571        C878   1.444       .  S
Co573      N1535   2.038       .  S
Co573     Cl2532   2.442   1_455  S
N577       C2491   1.351       .  A
C579       C2519   1.454       .  S
Cl580     Co1514   2.448       .  S
Cl580     Co2525   2.442       .  S
C581       C2514   1.447   1_455  S
C581       C1870   1.458   1_455  S
C584        N602   1.319       .  A
C584        C621   1.482       .  S
C584        C889   1.440       .  S
N585        N602   1.310       .  A
N585        N607   1.312       .  A
N585       Co622   2.055       .  S
C586        N611   1.340       .  A
C586        C624   1.455       .  S
C586        H631   1.082       .  S
H587        C628   1.082       .  S
C588        N612   1.330       .  A
C588        C592   1.437       .  S
C588        H617   1.082       .  S
Co589       N607   2.110       .  S
Co589       N597   2.107       .  S
Co589       N629   2.032       .  S
Co589       N605   2.086       .  S
Co589      Cl633   2.463       .  S
N590        C628   1.342       .  A
N590        N597   1.327       .  A
N590       Co591   2.106       .  S
Co591       N594   2.081       .  S
Co591       N611   2.074       .  S
Co591       N598   2.107       .  S
Co591      Cl633   2.439       .  S
C592        N630   1.351       .  A
C592        C885   1.419       .  S
N593        N600   1.313       .  A
N593        N623   1.329       .  A
N593       Co626   2.084       .  S
N594        N612   1.317       .  A
N594        N630   1.326       .  A
N595        C624   1.347       .  A
N595        N605   1.325       .  A
H596        C621   1.082       .  S
N597        N618   1.328       .  A
N598        N616   1.323       .  A
N598        N603   1.326       .  A
C599        N603   1.353       .  A
C599        C627   1.449       .  S
C599        C873   1.432       .  S
N600        C615   1.344       .  A
N600       Co622   2.087       .  S
C601        N629   1.332       .  A
C601        C604   1.442       .  S
C601        H635   1.082       .  S
C604        N625   1.360       .  A
C604        C888   1.442       .  S
N605        N611   1.319       .  A
N606        C632   1.340       .  A
N606        N608   1.316       .  A
N606       Co622   2.064       .  S
N607        C621   1.353       .  A
N608        N636   1.326       .  A
N608       Co626   2.092       .  S
H609        C632   1.082       .  S
H610        C627   1.082       .  S
N612       Co626   2.042       .  S
N613        N625   1.332       .  A
N613        N629   1.321       .  A
N613       Co622   2.153       .  S
C614        N618   1.352       .  A
C614        C628   1.458       .  S
C614        C884   1.447       .  S
C615        C634   1.451       .  S
C615        H619   1.077       .  S
N616        C627   1.335       .  A
N616       Co626   2.068       .  S
C620        N636   1.350       .  A
C620        C632   1.455       .  S
C620        C882   1.438       .  S
Co622      Cl633   2.408       .  S
N623        C634   1.352       .  A
C624        C875   1.435       .  S
Co626      Cl633   2.439       .  S
C634        C903   1.453       .  S
C637        N655   1.351       .  A
C637        C674   1.447       .  S
C637        C876   1.435       .  S
N638        N655   1.328       .  A
N638        N660   1.318       .  A
N638       Co675   2.087       .  S
C639        N664   1.326       .  A
C639        C677   1.426       .  S
C639        H684   1.084       .  S
H640        C681   1.081       .  S
C641        N665   1.342       .  A
C641        C645   1.457       .  S
C641        H670   1.081       .  S
Co642       N660   2.067       .  S
Co642       N650   2.030       .  S
Co642       N682   2.107       .  S
Co642       N658   2.108       .  S
Co642      Cl686   2.452       .  S
N643        C681   1.348       .  A
N643        N650   1.321       .  A
N643       Co644   2.131       .  S
Co644       N647   2.054       .  S
Co644       N664   2.035       .  S
Co644       N651   2.069       .  S
Co644      Cl686   2.421       .  S
C645        N683   1.346       .  A
C645        C863   1.435       .  S
N646        N676   1.321       .  A
N646       N2605   1.326       .  A
N646       Co679   2.076       .  S
N647       N2617   1.313       .  A
N647       N2635   1.324       .  A
N648        C677   1.362       .  A
N648        N658   1.331       .  A
H649        C674   1.082       .  S
N650        N671   1.316       .  A
N651       N2621   1.317       .  A
N651       N2608   1.325       .  A
C652        N656   1.338   1_455  A
C652        C680   1.458       .  S
C652        C872   1.453   1_455  S
N653       C2620   1.343       .  A
N653       N2598   1.326       .  A
N653       Co675   2.111       .  S
C654        N682   1.343       .  A
C654        C657   1.460       .  S
C654        H688   1.082       .  S
N656       N2603   1.325   1_655  A
C657        N678   1.350       .  A
C657        C866   1.446       .  S
N658        N664   1.309       .  A
N659       C2637   1.349       .  A
N659       N2613   1.317       .  A
N659       Co675   2.095       .  S
N660        C674   1.337       .  A
N661        N689   1.316       .  A
N661       N2611   1.317   1_455  A
N661       Co679   2.040       .  S
H662       C2637   1.081       .  S
H663        C680   1.076       .  S
N665       N2599   1.313       .  A
N665       Co679   2.082       .  S
N666        N678   1.327       .  A
N666        N682   1.330       .  A
N666       Co675   2.116       .  S
C667        N671   1.335       .  A
C667        C681   1.472       .  S
C667        C867   1.429       .  S
C668       N2605   1.343       .  A
C668        C687   1.461       .  S
C668       H2624   1.082   1_455  S
N669        C680   1.350       .  A
N669       N2603   1.317       .  A
N669       Co679   2.098       .  S
H672       C2620   1.082       .  S
C673        N689   1.332       .  A
C673        C685   1.468       .  S
C673        C869   1.428       .  S
Co675      Cl686   2.440       .  S
N676        C687   1.343       .  A
C677        C861   1.446       .  S
Co679     Cl2638   2.437   1_455  S
N683       N2599   1.324       .  A
C685       N2611   1.349   1_455  A
C685       H2614   1.081   1_455  S
Cl686     Co2631   2.437       .  S
C687        C874   1.432       .  S
C690        N708   1.349       .  A
C690        C727   1.453       .  S
C690        C908   1.430       .  S
N691        N708   1.324       .  A
N691        N713   1.324       .  A
N691       Co728   2.098       .  S
C692        N717   1.348       .  A
C692        C730   1.449       .  S
C692        H737   1.075       .  S
H693        C734   1.082       .  S
C694       N2670   1.332       .  A
C694        C698   1.443       .  S
C694        H723   1.082       .  S
Co695       N713   2.075       .  S
Co695       N703   2.087       .  S
Co695       N735   2.041       .  S
Co695       N711   2.084       .  S
Co695      Cl739   2.445       .  S
N696        C734   1.340       .  A
N696        N703   1.315       .  A
N696       Co697   2.067       .  S
Co697       N700   2.132       .  S
Co697       N717   2.095       .  S
Co697       N704   2.033       .  S
Co697      Cl739   2.420       .  S
C698       N2688   1.358       .  A
C698        C859   1.439       .  S
N699        N706   1.320   1_655  A
N699       N2681   1.325       .  A
N699       Co732   2.087       .  S
N700        N718   1.323   1_455  A
N700        N736   1.330       .  A
N701        C730   1.349       .  A
N701        N711   1.328       .  A
H702        C727   1.082       .  S
N703        N724   1.327       .  A
N704        N722   1.313   1_455  A
N704        N709   1.307       .  A
C705       N2661   1.324       .  A
C705        C733   1.485       .  S
C705       C2823   1.436       .  S
N706        C721   1.340       .  A
N706       Co728   2.073       .  S
C707       N1711   1.330       .  A
C707        C710   1.436       .  S
C707        H741   1.082       .  S
N709       C2657   1.324   1_455  A
C710        N731   1.351       .  A
C710        C858   1.418       .  S
N711        N717   1.317       .  A
N712       C1714   1.340   1_545  A
N712        N714   1.326   1_455  A
N712       Co728   2.097       .  S
N713        C727   1.337       .  A
N714       N3670   1.326       .  A
N714       Co732   2.100       .  S
H715        C738   1.082       .  S
H716        C733   1.081       .  S
N718       C2646   1.332       .  A
N718       Co732   2.050       .  S
N719        N735   1.316       .  A
N719       N1707   1.326   1_545  A
N719       Co728   2.081       .  S
C720        N724   1.351       .  A
C720        C734   1.455       .  S
C720        C855   1.440       .  S
C721       C2692   1.454   1_455  S
C721        H725   1.082       .  S
N722       C2685   1.356       .  A
N722       Co732   2.111       .  S
C726        N742   1.351       .  A
C726       C2690   1.456       .  S
C726        C853   1.440       .  S
Co728      Cl739   2.441       .  S
N729        C740   1.348       .  A
N729       N2651   1.325       .  A
C730        C852   1.454       .  S
N731       N1695   1.326       .  A
Co732      Cl739   2.465   1_655  S
C733       N2674   1.356       .  A
N735       C1683   1.330       .  A
N736       C2650   1.358   1_455  A
C738       N1688   1.340       .  A
C738       C2678   1.456   1_455  S
C740       C2673   1.454       .  S
C740        C906   1.435       .  S
N742       N3642   1.326       .  A
C743        N761   1.354       .  A
C743        C780   1.449       .  S
C743        C880   1.443       .  S
N744        N761   1.330       .  A
N744        N766   1.320       .  A
N744       Co781   2.099       .  S
C745        N770   1.325       .  A
C745        C783   1.433       .  S
C745        H790   1.083       .  S
H746        C787   1.081       .  S
C747       N1747   1.344   1_545  A
C747        C751   1.458       .  S
C747        H776   1.081   1_545  S
Co748       N766   2.077       .  S
Co748       N756   2.041       .  S
Co748       N788   2.096       .  S
Co748       N764   2.116       .  S
Co748      Cl792   2.458       .  S
N749        C787   1.349       .  A
N749       N1732   1.323   1_545  A
N749      Co1726   2.127   1_545  S
Co750       N770   2.029       .  S
Co750       N757   2.094       .  S
Co750      N1725   2.127       .  S
Co750      N1729   2.072       .  S
Co750      Cl792   2.436       .  S
C751        N789   1.349       .  A
C751        C865   1.446       .  S
N752        N759   1.327       .  A
N752        N782   1.326       .  A
N752       Co785   2.104       .  S
N753        N789   1.327       .  A
N753       N1747   1.314   1_545  A
N753      Co1726   2.072   1_545  S
N754        C783   1.367       .  A
N754        N764   1.334       .  A
H755        C780   1.082       .  S
N756       N1725   1.323       .  A
N756       N1753   1.316       .  A
N757        N775   1.319       .  A
N757        N762   1.330       .  A
C758        N762   1.348       .  A
C758        C786   1.466       .  S
C758        C850   1.471       .  S
N759        C774   1.343       .  A
N759       Co781   2.105       .  S
C760        N788   1.342       .  A
C760        C763   1.459       .  S
C760        H794   1.081       .  S
C763        N784   1.346       .  A
C763        C864   1.435       .  S
N764        N770   1.311       .  A
N765        C791   1.348       .  A
N765        N767   1.317       .  A
N765       Co781   2.098       .  S
N766        C780   1.339       .  A
N767        N795   1.317       .  A
N767       Co785   2.040       .  S
H768        C791   1.082       .  S
H769        C786   1.078       .  S
N771       C1723   1.344       .  A
N771       N1729   1.314       .  A
N771       Co785   2.084       .  S
N772        N784   1.323       .  A
N772        N788   1.328       .  A
N772       Co781   2.099       .  S
C773        N777   1.334       .  A
C773        C787   1.472       .  S
C773        C870   1.428       .  S
C774        C793   1.459       .  S
C774        H778   1.082       .  S
N775        C786   1.354       .  A
N775       Co785   2.120       .  S
N777       N1732   1.316   1_545  A
C779        N795   1.334       .  A
C779        C791   1.468       .  S
C779        C868   1.429       .  S
Co781      Cl792   2.446       .  S
N782        C793   1.350       .  A
C783        C851   1.445       .  S
Co785      Cl792   2.447       .  S
C793        C877   1.444       .  S
C796        N814   1.355       .  A
C796        C833   1.454       .  S
C796        C910   1.447       .  S
N797        N814   1.329       .  A
N797        N819   1.324       .  A
N797       Co834   2.120       .  S
C798        N823   1.350       .  A
C798        C836   1.454       .  S
C798        H843   1.075       .  S
H799        C840   1.082       .  S
C800        N824   1.331       .  A
C800        C804   1.440       .  S
C800        H829   1.082       .  S
Co801       N819   2.083       .  S
Co801       N809   2.096       .  S
Co801       N841   2.037       .  S
Co801       N817   2.101       .  S
Co801      Cl845   2.438       .  S
N802        C840   1.340       .  A
N802        N809   1.315       .  A
N802       Co803   2.058       .  S
Co803       N806   2.137       .  S
Co803       N823   2.108       .  S
Co803       N810   2.018       .  S
Co803      Cl845   2.431       .  S
C804        N842   1.359       .  A
C804        C860   1.439       .  S
N805        N812   1.322       .  A
N805        N835   1.327       .  A
N805       Co838   2.099       .  S
N806        N824   1.323       .  A
N806        N842   1.332       .  A
N807        C836   1.356       .  A
N807        N817   1.333       .  A
H808        C833   1.082       .  S
N809        N830   1.327       .  A
N810        N828   1.312       .  A
N810        N815   1.305       .  A
C811        N815   1.319       .  A
C811        C839   1.492       .  S
C811        C862   1.432       .  S
N812        C827   1.340       .  A
N812       Co834   2.078       .  S
C813        N841   1.328       .  A
C813        C816   1.435       .  S
C813        H847   1.082       .  S
C816        N837   1.351       .  A
C816        C857   1.417       .  S
N817        N823   1.315       .  A
N818        C844   1.342       .  A
N818        N820   1.326       .  A
N818       Co834   2.105       .  S
N819        C833   1.339       .  A
N820        N848   1.326       .  A
N820       Co838   2.091       .  S
H821        C844   1.082       .  S
H822        C839   1.081       .  S
N824       Co838   2.048       .  S
N825        N837   1.326       .  A
N825        N841   1.316       .  A
N825       Co834   2.081       .  S
C826        N830   1.351       .  A
C826        C840   1.454       .  S
C826        C856   1.440       .  S
C827        C846   1.455       .  S
C827        H831   1.082       .  S
N828        C839   1.359       .  A
N828       Co838   2.125       .  S
C832        N848   1.349       .  A
C832        C844   1.458       .  S
C832        C854   1.440       .  S
Co834      Cl845   2.449       .  S
N835        C846   1.349       .  A
C836        C849   1.471       .  S
Co838      Cl845   2.466       .  S
C846        C911   1.439       .  S
C849        C850   1.227       .  T
C851       C1828   1.216       .  T
C852       C1827   1.216   1_545  T
C853        C854   1.208       .  T
C855        C856   1.208       .  T
C857        C858   1.196       .  T
C859        C860   1.208       .  T
C861        C862   1.214       .  T
C863        C864   1.205       .  T
C865        C866   1.212       .  T
C867        C868   1.203       .  T
C869        C870   1.203       .  T
C871       C2657   1.436       .  S
C871        C872   1.215       .  T
C873        C874   1.203       .  T
C875        C876   1.205       .  T
C877        C878   1.210       .  T
C879        C880   1.210       .  T
C881        C882   1.207       .  T
C883        C884   1.213       .  T
C885        C886   1.196       .  T
C887        C888   1.210       .  T
C889        C890   1.213       .  T
C891        C892   1.221       .  T
C893       C2392   1.443       .  S
C893        C894   1.218       .  T
C894       C1557   1.458   1_645  S
C895        C896   1.204       .  T
C897        C898   1.201       .  T
C899        C900   1.202       .  T
C901        C902   1.204       .  T
C903        C904   1.216       .  T
C905        C906   1.205       .  T
C907        C908   1.202       .  T
C909        C910   1.212       .  T
C911        C912   1.208       .  T
C912       C2311   1.439       .  S
C913        C914   1.208       .  T
C915        C916   1.208       .  T
C917        C918   1.199       .  T
C918       C2301   1.424       .  S
C919        C920   1.212       .  T
C921       C1898   1.211   1_545  T
C922       C1897   1.211       .  T
C923        C924   1.216       .  T
C925        C926   1.219       .  T
C927        C928   1.207       .  T
C929        C930   1.209       .  T
C931        C932   1.211       .  T
C933        C934   1.199       .  T
C935        C936   1.220   1_554  T
C937        C938   1.201       .  T
C939        C940   1.215       .  T
C941        C942   1.202       .  T
C943        C944   1.205       .  T
C945        C946   1.215       .  T
C947        C948   1.209       .  T
C949        C950   1.198       .  T
C951        C952   1.201       .  T
C953        C954   1.201       .  T
C955        C956   1.201       .  T
C957        C958   1.220       .  T
C959       C2036   1.456       .  S
C959        C960   1.221       .  T
C961        C962   1.209       .  T
C963        C964   1.206       .  T
C965        C966   1.217       .  T
C967        C968   1.209       .  T
C969        C970   1.210       .  T
C971        C972   1.207       .  T
C973        C974   1.211       .  T
C975       C1133   1.451       .  S
C975        C976   1.214   1_565  T
C977        N995   1.350       .  A
C977       C1014   1.458       .  S
C977       C1942   1.454       .  S
N978        N995   1.329       .  A
N978       N1000   1.319       .  A
N978      Co1015   2.096       .  S
C979       N1004   1.343       .  A
C979       C1017   1.462       .  S
C979       H1024   1.082       .  S
H980       C1021   1.081       .  S
C981       N1005   1.345       .  A
C981        C985   1.463       .  S
C981       H1010   1.081       .  S
Co982      N1000   2.090       .  S
Co982       N990   2.076       .  S
Co982      N1022   2.091       .  S
Co982       N998   2.079       .  S
Co982     Cl1026   2.464       .  S
N983       C1021   1.344       .  A
N983        N990   1.317       .  A
N983       Co984   2.080       .  S
Co984       N987   2.096       .  S
Co984      N1004   2.105       .  S
Co984       N991   2.081       .  S
Co984     Cl1026   2.437       .  S
C985       N1023   1.346       .  A
C985       C1944   1.441       .  S
N986        N993   1.314       .  A
N986       N1016   1.332       .  A
N986      Co1019   2.115       .  S
N987       N1005   1.327       .  A
N987       N1023   1.324       .  A
N988       C1017   1.345       .  A
N988        N998   1.323       .  A
H989       C1014   1.079       .  S
N990       N1011   1.323       .  A
N991       N1009   1.321       .  A
N991        N996   1.325       .  A
C992        N996   1.348       .  A
C992       C1020   1.458       .  S
C992       C1938   1.442       .  S
N993       C1008   1.328       .  A
N993      Co1015   2.036       .  S
C994       N1022   1.345       .  A
C994       H1028   1.081       .  S
C997       N1018   1.346       .  A
C997       C1946   1.443       .  S
N998       N1004   1.324       .  A
N999       C1025   1.348   1_545  A
N1000      C1014   1.345       .  A
N1001     Co1019   2.076       .  S
H1002      C1025   1.081       .  S
H1003      C1020   1.082       .  S
N1005     Co1019   2.109       .  S
N1006      N1022   1.316       .  A
N1006     Co1015   2.070       .  S
C1007      N1011   1.345       .  A
C1007      C1021   1.459       .  S
C1007      C1947   1.437       .  S
C1008      C1027   1.440       .  S
C1008      H1012   1.083       .  S
N1009      C1020   1.343       .  A
N1009     Co1019   2.091       .  S
C1013      N1029   1.345       .  A
C1013      C1025   1.467       .  S
C1013      C1949   1.444       .  S
Co1015    Cl1026   2.429       .  S
N1016      C1027   1.363       .  A
C1017      C1940   1.436       .  S
Co1019    Cl1026   2.467       .  S
C1027      C1952   1.445       .  S
C1030      N1048   1.348       .  A
C1030      C1067   1.459       .  S
C1030      C1950   1.445       .  S
N1031      N3000   1.326   1_455  A
N1031      N1053   1.318       .  A
N1031     Co1068   2.074       .  S
C1032      N1057   1.326       .  A
C1032      C1070   1.438       .  S
C1032      H1077   1.083       .  S
H1033      C1074   1.080       .  S
C1034      N3010   1.342       .  A
C1034      C1038   1.460       .  S
C1034      H1063   1.082       .  S
Co1035     N1053   2.096       .  S
Co1035     N1043   2.039       .  S
Co1035     N1075   2.090       .  S
Co1035     N1051   2.154       .  S
Co1035    Cl1079   2.435       .  S
N1036      C3026   1.354       .  A
N1036      N1043   1.319       .  A
N1036     Co1037   2.137       .  S
Co1037     N1040   2.089       .  S
Co1037     N1057   2.026       .  S
Co1037     N1044   2.077       .  S
Co1037    Cl1079   2.421       .  S
C1038      N1076   1.349       .  A
C1038      C1943   1.442       .  S
N1039      N1046   1.321       .  A
N1039      N3021   1.324   1_455  A
N1039     Co1072   2.078       .  S
N1040      N1058   1.324       .  A
N1040      N3028   1.326   1_455  A
N1041      C1070   1.366       .  A
N1041      N1051   1.334       .  A
H1042      C1067   1.081       .  S
N1043      N1064   1.315       .  A
N1044      N1062   1.316       .  A
N1044      N1049   1.324       .  A
C1045      N1049   1.344       .  A
C1045      C1073   1.459       .  S
C1045      C1948   1.437       .  S
N1046      C3013   1.338   1_455  A
N1046     Co1068   2.080       .  S
C1047      N1075   1.341       .  A
C1047      C1050   1.459       .  S
C1047      H1081   1.082       .  S
N1048      N2983   1.326       .  A
C1050      N1071   1.350       .  A
C1050      C1945   1.443       .  S
N1051      N1057   1.316       .  A
N1052      C1078   1.337       .  A
N1052      N1054   1.322       .  A
N1052     Co1068   2.072       .  S
N1053      C3019   1.345   1_455  A
N1054      N1082   1.325       .  A
N1054     Co1072   2.090       .  S
H1055      C1078   1.082       .  S
H1056      C1073   1.081       .  S
N1058      C2986   1.342   1_455  A
N1058     Co1072   2.102       .  S
N1059      N1071   1.326       .  A
N1059      N1075   1.322       .  A
N1059     Co1068   2.096       .  S
C1060      N3016   1.334       .  A
C1060      C1074   1.479       .  S
C1060      C3887   1.456       .  S
C1061      N2998   1.338       .  A
C1061      C1080   1.452       .  S
C1061      H1065   1.082       .  S
N1062      C1073   1.345       .  A
N1062     Co1072   2.075       .  S
N1064      C3012   1.334       .  A
C1066      N1082   1.348       .  A
C1066      C1078   1.449       .  S
C1066      C1932   1.429       .  S
C1067      N3005   1.345       .  A
Co1068    Cl1079   2.439       .  S
N1069      C1080   1.347       .  A
N1069      N2991   1.324       .  A
C1070      C1933   1.455       .  S
Co1072    Cl1079   2.448       .  S
C1074      N2988   1.354       .  A
N1076      N2992   1.326       .  A
C1080      C1929   1.427       .  S
C1083      N1101   1.332       .  A
C1083      C1120   1.475       .  S
C1083      C1936   1.457       .  S
N1084      N3053   1.316       .  A
N1084      N3058   1.317       .  A
N1084     Co1121   2.051       .  S
C1085      N1110   1.344       .  A
C1085      C1123   1.460       .  S
C1085      H3082   1.082   1_455  S
H1086      C1127   1.082   1_655  S
C1087      N1111   1.331       .  A
C1087      C1091   1.438       .  S
C1087      H1116   1.082       .  S
Co1088     N1106   2.105       .  S
Co1088     N1096   2.127       .  S
Co1088     N1128   2.040       .  S
Co1088     N1104   2.068       .  S
Co1088    Cl3084   2.449   1_455  S
N1089      C1127   1.340       .  A
N1089     Co2066   2.099   1_455  S
Co1090     N2065   2.099   1_565  S
Co1090     N3062   2.078       .  S
Co1090     N1097   2.097       .  S
Co1090    Cl1132   2.438       .  S
C1091      N1129   1.351       .  A
C1091      C1926   1.421       .  S
N1092      N1099   1.318       .  A
N1092      N1122   1.327       .  A
N1092     Co1125   2.090       .  S
N1093      N1111   1.316       .  A
N1093      N1129   1.326       .  A
N1094      C1123   1.343       .  A
N1094      N1104   1.322       .  A
H1095      C1120   1.082       .  S
N1097      N1115   1.325       .  A
N1097      N1102   1.324       .  A
C1098      N1102   1.348       .  A
C1098      C1126   1.453       .  S
C1098      C1918   1.429       .  S
N1099      C1114   1.347       .  A
N1099     Co1121   2.087       .  S
C1100      N1128   1.329       .  A
C1100      C1103   1.441       .  S
C1100      H1134   1.082       .  S
N1101      N3036   1.316       .  A
C1103      N3076   1.355       .  A
C1103      C1927   1.426       .  S
N1104      N1110   1.317       .  A
N1105      C1131   1.340       .  A
N1105      N1107   1.313       .  A
N1105     Co1121   2.069       .  S
N1106      C1120   1.357       .  A
N1106      N3036   1.317       .  A
N1107      N1135   1.328       .  A
N1107     Co1125   2.080       .  S
H1108      C1131   1.082       .  S
H1109      C1126   1.082       .  S
N1110     Co3042   2.078   1_455  S
N1112      N1124   1.327       .  A
N1112      N3080   1.322       .  A
N1112     Co1121   2.123       .  S
C1113      N1117   1.357       .  A
C1113      C1127   1.454       .  S
C1113      C1921   1.451       .  S
C1114      C1133   1.454       .  S
C1114      H1118   1.080       .  S
N1115      C1126   1.337       .  A
N1115     Co1125   2.081       .  S
C1119      N1135   1.351       .  A
C1119      C1131   1.453       .  S
C1119      C1924   1.442       .  S
Co1121    Cl1132   2.420       .  S
N1122      C1133   1.349       .  A
C1123      C1919   1.434       .  S
N1124      C3055   1.355       .  A
Co1125    Cl1132   2.451       .  S
N1128      N3064   1.322   1_455  A
H1130      C3037   1.082       .  S
Cl1132    Co3040   2.449       .  S
C1136      N1154   1.331       .  A
C1136      C1173   1.476       .  S
C1136      C1934   1.455       .  S
N1137      N1154   1.316       .  A
N1137      N1159   1.318       .  A
N1137     Co1174   2.046       .  S
C1138      N1163   1.341       .  A
C1138      C1176   1.457       .  S
C1138      H1183   1.082       .  S
H1139      C1180   1.082       .  S
C1140      N1164   1.331       .  A
C1140      C1144   1.438       .  S
C1140      H1169   1.082       .  S
Co1141     N1159   2.108       .  S
Co1141     N1149   2.120       .  S
Co1141     N1181   2.044       .  S
Co1141     N1157   2.065       .  S
Co1141    Cl1185   2.452       .  S
N1142      C1180   1.341       .  A
N1142      N1149   1.328       .  A
N1142     Co1143   2.106       .  S
Co1143     N1146   2.081       .  S
Co1143     N1163   2.072       .  S
Co1143     N1150   2.116       .  S
Co1143    Cl1185   2.449       .  S
C1144      N1182   1.351       .  A
C1144      C1925   1.421       .  S
N1145      N1152   1.319       .  A
N1145      N1175   1.329       .  A
N1145     Co1178   2.099       .  S
N1146      N1164   1.316       .  A
N1146      N1182   1.326       .  A
N1147      C1176   1.341       .  A
N1147      N1157   1.321       .  A
H1148      C1173   1.082       .  S
N1149      N1170   1.330       .  A
N1150      N1168   1.325       .  A
N1150      N1155   1.329       .  A
C1151      N1155   1.353       .  A
C1151      C1179   1.460       .  S
C1151      C1915   1.452       .  S
N1152      C1167   1.346       .  A
N1152     Co1174   2.090       .  S
C1153      N1181   1.329       .  A
C1153      C1156   1.441       .  S
C1153      H1187   1.082       .  S
C1156      N1177   1.355       .  A
C1156      C1928   1.426       .  S
N1157      N1163   1.318       .  A
N1158      C1184   1.339       .  A
N1158      N1160   1.315       .  A
N1158     Co1174   2.065       .  S
N1159      C1173   1.357       .  A
N1160      N1188   1.328       .  A
N1160     Co1178   2.084       .  S
H1161      C1184   1.082       .  S
H1162      C1179   1.081       .  S
N1164     Co1178   2.043       .  S
N1165      N1177   1.327       .  A
N1165      N1181   1.322       .  A
N1165     Co1174   2.120       .  S
C1166      N1170   1.356       .  A
C1166      C1180   1.455       .  S
C1166      C1922   1.451       .  S
C1167      C1186   1.457       .  S
C1167      H1171   1.080       .  S
N1168      C1179   1.343       .  A
N1168     Co1178   2.098       .  S
C1172      N1188   1.352       .  A
C1172      C1184   1.452       .  S
C1172      C1923   1.441       .  S
Co1174    Cl1185   2.423       .  S
N1175      C1186   1.351       .  A
C1176      C1914   1.427       .  S
Co1178    Cl1185   2.450       .  S
C1186      C1941   1.455       .  S
C1189      N1207   1.348       .  A
C1189      C1226   1.464       .  S
C1189      C1916   1.452       .  S
N1190      N1207   1.327       .  A
N1190      N1212   1.321       .  A
N1190     Co1227   2.082       .  S
C1191      N1216   1.323       .  A
C1191      C1229   1.432       .  S
C1191      H1236   1.084       .  S
H1192      C1233   1.081       .  S
C1193      N1217   1.342       .  A
C1193      C1197   1.457       .  S
C1193      H1222   1.082       .  S
Co1194     N1212   2.111       .  S
Co1194     N1202   2.044       .  S
Co1194     N1234   2.098       .  S
Co1194     N1210   2.136       .  S
Co1194    Cl1238   2.471       .  S
N1195      C1233   1.352       .  A
N1195      N1202   1.324       .  A
N1195     Co1196   2.146       .  S
Co1196     N1199   2.071       .  S
Co1196     N1216   2.025       .  S
Co1196     N1203   2.103       .  S
Co1196    Cl1238   2.416       .  S
C1197      N3187   1.348       .  A
C1197      C1904   1.439       .  S
N1198      N3157   1.324   1_455  A
N1198      N1228   1.319       .  A
N1198     Co1231   2.068       .  S
N1199      N3169   1.315       .  A
N1199      N1235   1.325       .  A
N1200      C1229   1.370       .  A
N1200      N1210   1.335       .  A
H1201      C1226   1.081       .  S
N1202      N1223   1.319       .  A
N1203      N3173   1.316       .  A
N1203      N3160   1.329       .  A
C1204      N1208   1.350   1_455  A
C1204      C1232   1.461       .  S
C1204      C1911   1.460       .  S
N1205      C1220   1.342       .  A
N1205      N3150   1.324       .  A
N1205     Co1227   2.101       .  S
C1206      N1234   1.343       .  A
C1206      C1209   1.459       .  S
C1206      H1240   1.081       .  S
N1208      N3155   1.329       .  A
C1209      N1230   1.349       .  A
C1209      C1906   1.442       .  S
N1210      N1216   1.311       .  A
N1211      C1237   1.344       .  A
N1211      N3165   1.318       .  A
N1211     Co1227   2.084       .  S
N1212      C1226   1.348       .  A
N1213      N3163   1.318   1_455  A
N1213      N1241   1.317       .  A
N1213     Co1231   2.048       .  S
H1214      C1237   1.082       .  S
H1215      C1232   1.079       .  S
N1217      N3151   1.315   1_455  A
N1217     Co1231   2.081       .  S
N1218      N1230   1.325       .  A
N1218      N1234   1.327       .  A
N1218     Co1227   2.104       .  S
C1219      N1223   1.338       .  A
C1219      C1233   1.475       .  S
C1219      C1907   1.444       .  S
C1220      C3191   1.461       .  S
C1220      H1224   1.082       .  S
N1221      C1232   1.349       .  A
N1221      N3155   1.316   1_455  A
N1221     Co1231   2.089       .  S
C1225      N1241   1.335       .  A
C1225      C3189   1.461   1_455  S
C1225      C1909   1.423       .  S
Co1227    Cl1238   2.444       .  S
N1228      C1239   1.342       .  A
C1229      C1901   1.449   1_554  S
Co1231    Cl3190   2.449   1_455  S
N1235      C3149   1.348       .  A
C1237      C3177   1.461       .  S
Cl1238    Co3183   2.449       .  S
C1239      C3172   1.461   1_455  S
C1239      C1913   1.427       .  S
C1242      N1260   1.346       .  A
C1242      C1279   1.453       .  S
C1242      C1917   1.429       .  S
N1243      N1260   1.323       .  A
N1243      N1265   1.320       .  A
N1243     Co1280   2.072       .  S
C1244      N1269   1.323       .  A
C1244      C1282   1.427       .  S
C1244      H1289   1.085       .  S
H1245      C1286   1.081       .  S
C1246      C1250   1.457       .  S
C1246      H1275   1.081       .  S
Co1247     N1265   2.080       .  S
Co1247     N1255   2.045       .  S
Co1247     N1287   2.093       .  S
Co1247     N1263   2.108       .  S
Co1247    Cl1291   2.458       .  S
N1248      C1286   1.352       .  A
Co1249     N1269   2.028       .  S
Co1249     N1256   2.079       .  S
Co1249    Cl1291   2.423       .  S
C1250      N1288   1.348       .  A
C1250      C1903   1.439       .  S
N1251      N1258   1.325       .  A
N1251      N1281   1.320       .  A
N1251     Co1284   2.069       .  S
N1252      N1288   1.325       .  A
N1253      C1282   1.365       .  A
N1253      N1263   1.329       .  A
H1254      C1279   1.082       .  S
N1256      N1274   1.316       .  A
N1256      N1261   1.326       .  A
C1257      N1261   1.339       .  A
C1257      C1285   1.457       .  S
C1257      C1900   1.454       .  S
N1258      C1273   1.344       .  A
N1258     Co1280   2.114       .  S
C1259      N1287   1.341       .  A
C1259      C1262   1.455       .  S
C1259      H1293   1.082       .  S
C1262      N1283   1.351       .  A
C1262      C1905   1.442       .  S
N1263      N1269   1.308       .  A
N1264      C1290   1.345       .  A
N1264      N1266   1.317       .  A
N1264     Co1280   2.077       .  S
N1265      C1279   1.340       .  A
N1266      N1294   1.317       .  A
N1266     Co1284   2.050       .  S
H1267      C1290   1.082       .  S
H1268      C1285   1.076       .  S
N1270     Co1284   2.085       .  S
N1271      N1283   1.327       .  A
N1271      N1287   1.327       .  A
N1271     Co1280   2.112       .  S
C1272      N1276   1.338       .  A
C1272      C1286   1.474       .  S
C1272      C1908   1.444       .  S
C1273      C1292   1.464       .  S
C1273      H1277   1.081       .  S
N1274      C1285   1.350       .  A
N1274     Co1284   2.090       .  S
C1278      N1294   1.335       .  A
C1278      C1290   1.461       .  S
C1278      C1910   1.422       .  S
Co1280    Cl1291   2.437       .  S
N1281      C1292   1.343       .  A
C1282      C1898   1.436       .  S
Co1284    Cl1291   2.443       .  S
C1292      C1920   1.434       .  S
C1295      N1313   1.350       .  A
C1295      C3284   1.461   1_455  S
C1295      C1912   1.461       .  S
N1296      N1313   1.329       .  A
N1296      N1318   1.317       .  A
N1296     Co1333   2.099       .  S
C1297      N1322   1.344       .  A
C1297      C1335   1.461       .  S
C1297      H1342   1.082       .  S
H1298      C1339   1.082       .  S
C1299      N1323   1.342       .  A
C1299      C1303   1.457       .  S
C1299      H1328   1.081       .  S
Co1300     N1318   2.096       .  S
Co1300     N1308   2.048       .  S
Co1300     N1340   2.083       .  S
Co1300     N1316   2.084       .  S
Co1300    Cl1344   2.451       .  S
N1301      C1339   1.345       .  A
N1301      N1308   1.318       .  A
N1301     Co1302   2.087       .  S
Co1302     N1305   2.104       .  S
Co1302     N1322   2.105       .  S
Co1302     N1309   2.087       .  S
Co1302    Cl1344   2.446       .  S
C1303      N1341   1.349       .  A
C1303      C1891   1.439       .  S
N1304      N1311   1.311       .  A
N1304      N1334   1.333       .  A
N1304     Co1337   2.124       .  S
N1305      N1323   1.326       .  A
N1305      N1341   1.325       .  A
N1306      C3287   1.346       .  A
N1306      N3268   1.323       .  A
H1307      C1332   1.079       .  S
N1308      N1329   1.317   1_455  A
N1309      N1327   1.321       .  A
N1309      N1314   1.327       .  A
C1310      N1314   1.349       .  A
C1310      C1338   1.459       .  S
C1310      C1885   1.447       .  S
N1311      C1326   1.323       .  A
N1311     Co1333   2.028       .  S
C1312      N3292   1.343       .  A
C1312      C1315   1.458       .  S
C1312      H1346   1.081       .  S
C1315      N3288   1.348       .  A
C1315      C1889   1.440       .  S
N1316      N3258   1.323   1_455  A
N1316      N1322   1.325       .  A
N1317      C1343   1.352       .  A
N1317      N1319   1.324       .  A
N1317     Co1333   2.143       .  S
N1318      C3284   1.350   1_455  A
N1319      N1347   1.319       .  A
N1319     Co1337   2.047       .  S
H1320      C1343   1.082       .  S
H1321      C1338   1.081       .  S
N1323     Co1337   2.092       .  S
N1324      N1336   1.325       .  A
N1324      N1340   1.316       .  A
N1324     Co1333   2.072       .  S
C1325      N1329   1.335       .  A
C1325      C1339   1.462   1_655  S
C1325      C3846   1.424       .  S
C1326      C1345   1.434       .  S
C1326      H1330   1.084       .  S
N1327      C1338   1.345       .  A
N1327     Co1337   2.098       .  S
C1331      N1347   1.338       .  A
C1331      C1343   1.475       .  S
C1331      C1895   1.444       .  S
C1332      N3270   1.350       .  A
C1332      C3247   1.461       .  S
Co1333    Cl1344   2.421       .  S
N1334      C1345   1.368       .  A
C1335      N3258   1.346   1_455  A
C1335      C3840   1.439   1_455  S
N1336      C3267   1.348   1_455  A
Co1337    Cl1344   2.469       .  S
N1340      C3264   1.343   1_455  A
C1345      C1899   1.444   1_556  S
C1348      N1366   1.339       .  A
C1348      C1385   1.458       .  S
C1348      C1902   1.459       .  S
N1349      N1366   1.326       .  A
N1349      N1371   1.317       .  A
N1349     Co1386   2.083       .  S
C1350      N1375   1.343       .  A
C1350      C1388   1.461       .  S
C1350      H1395   1.081       .  S
H1351      C1392   1.081       .  S
C1352      N1376   1.341       .  A
C1352      C1356   1.456       .  S
C1352      H1381   1.081       .  S
Co1353     N1371   2.098       .  S
Co1353     N1361   2.046       .  S
Co1353     N1393   2.089       .  S
Co1353     N1369   2.079       .  S
Co1353    Cl1397   2.440       .  S
N1354      C1392   1.346       .  A
N1354      N1361   1.317       .  A
N1354     Co1355   2.081       .  S
Co1355     N1358   2.106       .  S
Co1355     N1375   2.108       .  S
Co1355     N1362   2.072       .  S
Co1355    Cl1397   2.442       .  S
C1356      N1394   1.350       .  A
C1356      C1892   1.439       .  S
N1357      N1364   1.308       .  A
N1357      N1387   1.330       .  A
N1357     Co1390   2.110       .  S
N1358      N1376   1.326       .  A
N1358      N1394   1.326       .  A
N1359      C1388   1.346       .  A
N1359      N1369   1.322       .  A
H1360      C1385   1.076       .  S
N1361      N1382   1.317       .  A
N1362      N1380   1.320       .  A
N1362      N1367   1.323       .  A
C1363      N1367   1.346       .  A
C1363      C1391   1.454       .  S
C1363      C1883   1.430       .  S
N1364      C1379   1.322       .  A
N1364     Co1386   2.025       .  S
C1365      N1393   1.343       .  A
C1365      H1399   1.081       .  S
C1368      N1389   1.348       .  A
C1368      C1890   1.440       .  S
N1369      N1375   1.325       .  A
N1370      N1372   1.324       .  A
N1370     Co1386   2.140       .  S
N1371      C1385   1.352       .  A
N1372     Co1390   2.049       .  S
H1373      C1396   1.081       .  S
H1374      C1391   1.082       .  S
N1376     Co1390   2.091       .  S
N1377      N1393   1.315       .  A
N1377     Co1386   2.063       .  S
C1378      N1382   1.334       .  A
C1378      C1392   1.462       .  S
C1378      C1893   1.423       .  S
C1379      C1398   1.427       .  S
C1379      H1383   1.085       .  S
N1380      C1391   1.340       .  A
N1380     Co1390   2.080       .  S
C1384      N1400   1.338       .  A
C1384      C1396   1.475       .  S
C1384      C1896   1.445       .  S
Co1386    Cl1397   2.421       .  S
N1387      C1398   1.367       .  A
C1388      C1881   1.435       .  S
Co1390    Cl1397   2.463       .  S
C1398      C1897   1.435   1_556  S
C1401      N1419   1.353       .  A
C1401      C1438   1.449       .  S
C1401      C1939   1.436       .  S
N1402      N1419   1.328       .  A
N1402      N1424   1.323       .  A
N1402     Co1439   2.108       .  S
C1403      N1428   1.344       .  A
C1403      C1441   1.452       .  S
C1403      H1448   1.077       .  S
H1404      C1445   1.082       .  S
C1405      N3381   1.330       .  A
C1405      H1434   1.082       .  S
Co1406     N1424   2.074       .  S
Co1406     N1414   2.078       .  S
Co1406     N1446   2.046       .  S
Co1406     N1422   2.089       .  S
Co1406    Cl1450   2.442       .  S
N1407      N1414   1.314       .  A
N1407     Co1408   2.051       .  S
Co1408     N1411   2.126       .  S
Co1408     N1428   2.093       .  S
Co1408     N1415   2.029       .  S
Co1408    Cl1450   2.424       .  S
C1409      N3399   1.358       .  A
C1409      C1876   1.428       .  S
N1410      N1417   1.321       .  A
N1410      N3392   1.324   1_455  A
N1410     Co1443   2.085       .  S
N1411      N1429   1.321       .  A
N1412      C1441   1.352       .  A
N1412      N1422   1.329       .  A
H1413      C1438   1.081       .  S
N1414      N1435   1.324       .  A
N1415      N1433   1.314       .  A
N1415      N1420   1.309       .  A
C1416      N3372   1.324       .  A
C1416      C1444   1.489       .  S
C1416      C3821   1.443       .  S
N1417      C1432   1.346       .  A
N1417     Co1439   2.092       .  S
C1418      N1446   1.333       .  A
C1418      C1421   1.440       .  S
C1418      H1452   1.081       .  S
N1420      C3368   1.324   1_455  A
C1421      N1442   1.355       .  A
C1421      C1877   1.431       .  S
N1422      N1428   1.316       .  A
N1423      C1449   1.338       .  A
N1423      N1425   1.327       .  A
N1423     Co1439   2.094       .  S
N1424      C1438   1.336       .  A
N1425      N3405   1.325   1_455  A
N1425     Co1443   2.097       .  S
H1426      C1449   1.082       .  S
H1427      C1444   1.081       .  S
N1429      C3357   1.330   1_455  A
N1429     Co1443   2.038       .  S
N1430      N1442   1.329       .  A
N1430      N1446   1.317       .  A
N1430     Co1439   2.100       .  S
C1431      C1445   1.451       .  S
C1431      C1873   1.428       .  S
C1432      C3403   1.461   1_455  S
C1432      H1436   1.082       .  S
N1433      C3396   1.360   1_455  A
N1433     Co1443   2.126       .  S
C1437      N1453   1.350       .  A
C1437      C3401   1.452       .  S
C1437      C1872   1.434       .  S
Co1439    Cl1450   2.449       .  S
N1440      C1451   1.344       .  A
N1440      N3362   1.324       .  A
C1441      C1880   1.453       .  S
Co1443    Cl1450   2.464       .  S
C1444      N3385   1.360       .  A
N1447      C3361   1.358   1_455  A
C1449      C3389   1.452   1_455  S
C1451      C3384   1.461       .  S
C1451      C1937   1.442       .  S
N1453      N3377   1.325       .  A
C1454      N1472   1.347       .  A
C1454      C1491   1.453       .  S
C1454      C1930   1.427       .  S
N1455      N1472   1.324       .  A
N1455      N1477   1.323       .  A
N1455     Co1492   2.091       .  S
C1456      N1481   1.344       .  A
C1456      C1494   1.445       .  S
C1456      H1501   1.074       .  S
H1457      C1498   1.082       .  S
C1458      N1482   1.331       .  A
C1458      C1462   1.440       .  S
C1458      H1487   1.082       .  S
Co1459     N1477   2.081       .  S
Co1459     N1467   2.095       .  S
Co1459     N1499   2.037       .  S
Co1459     N1475   2.097       .  S
Co1459    Cl1503   2.425       .  S
N1460      C1498   1.337       .  A
N1460      N1467   1.314       .  A
N1460     Co1461   2.043       .  S
Co1461     N1464   2.129       .  S
Co1461     N1481   2.087       .  S
Co1461     N1468   2.035       .  S
Co1461    Cl1503   2.425       .  S
C1462      N1500   1.357       .  A
C1462      C1878   1.431       .  S
N1463      N1470   1.319       .  A
N1463      N1493   1.322       .  A
N1463     Co1496   2.074       .  S
N1464      N1482   1.321       .  A
N1464      N1500   1.329       .  A
N1465      C1494   1.354       .  A
N1465      N1475   1.330       .  A
H1466      C1491   1.081       .  S
N1467      N1488   1.326       .  A
N1468      N1486   1.310       .  A
N1468      N1473   1.305       .  A
C1469      N1473   1.318       .  A
C1469      C1497   1.487       .  S
C1469      C1866   1.429       .  S
N1470      C1485   1.341       .  A
N1470     Co1492   2.077       .  S
C1471      N1499   1.330       .  A
C1471      C1474   1.435       .  S
C1471      H1505   1.082       .  S
C1474      N1495   1.356       .  A
C1474      C1875   1.427       .  S
N1475      N1481   1.314       .  A
N1476      C1502   1.337       .  A
N1476      N1478   1.326       .  A
N1476     Co1492   2.086       .  S
N1477      C1491   1.338       .  A
N1478      N1506   1.324       .  A
N1478     Co1496   2.093       .  S
H1479      C1502   1.082       .  S
H1480      C1497   1.081       .  S
N1482     Co1496   2.038       .  S
N1483      N1495   1.329       .  A
N1483      N1499   1.315       .  A
N1483     Co1492   2.095       .  S
C1484      N1488   1.351       .  A
C1484      C1498   1.450       .  S
C1484      C1871   1.434       .  S
C1485      C1504   1.455       .  S
C1485      H1489   1.082       .  S
N1486      C1497   1.355       .  A
N1486     Co1496   2.104       .  S
C1490      N1506   1.348       .  A
C1490      C1502   1.451       .  S
C1490      C1874   1.429       .  S
Co1492    Cl1503   2.445       .  S
N1493      C1504   1.344       .  A
C1494      C1867   1.462       .  S
Co1496    Cl1503   2.461       .  S
C1504      C1931   1.429       .  S
C1507      N1525   1.320       .  A
C1507      C1544   1.492       .  S
C1507      C1868   1.446       .  S
N1508      N1525   1.308       .  A
N1508      N1530   1.312       .  A
N1508     Co1545   2.032       .  S
C1509      N1534   1.341       .  A
C1509      C1547   1.454       .  S
C1509      H1554   1.082       .  S
H1510      C1551   1.082       .  S
C1511      N1535   1.330       .  A
C1511      C1515   1.436       .  S
C1511      H1540   1.082       .  S
Co1512     N1530   2.131       .  S
Co1512     N1552   2.045       .  S
Co1512     N1528   2.102       .  S
Co1512    Cl1556   2.469       .  S
N1513      C1551   1.343       .  A
N1513      N1520   1.328       .  A
N1513     Co1514   2.111       .  S
Co1514     N1517   2.082       .  S
C1515      N3505   1.351   1_455  A
C1515      C1862   1.419       .  S
N1516      N3475   1.316   1_455  A
N1516      N1546   1.330       .  A
N1516     Co1549   2.087       .  S
N1517      N3487   1.316       .  A
N1517      N1553   1.326       .  A
N1518      C1547   1.351       .  A
N1518      N1528   1.328       .  A
H1519      C1544   1.081       .  S
N1520      N1541   1.328       .  A
N1521      N3491   1.325       .  A
N1521      N1526   1.330       .  A
C1522      N3478   1.356       .  A
C1522      C1550   1.449       .  S
C1522      C1855   1.443       .  S
N1523      C1538   1.348       .  A
N1523      N3468   1.316       .  A
N1523     Co1545   2.094       .  S
C1524      N1552   1.332       .  A
C1524      C1527   1.443       .  S
C1524      H1558   1.082       .  S
N1526      C3474   1.356       .  A
C1527      N1548   1.359       .  A
C1527      C1863   1.442       .  S
N1528      N1534   1.321       .  A
N1529      C1555   1.340       .  A
N1529      N3483   1.315       .  A
N1529     Co1545   2.063       .  S
N1530      C1544   1.361       .  A
N1531      N3481   1.315   1_455  A
N1531      N1559   1.327       .  A
N1531     Co1549   2.088       .  S
H1532      C1555   1.082       .  S
H1533      C1550   1.082       .  S
N1535      N3469   1.316   1_455  A
N1536      N1548   1.331       .  A
N1536      N1552   1.324       .  A
N1536     Co1545   2.143       .  S
C1537      N1541   1.352       .  A
C1537      C1551   1.458       .  S
C1537      C1859   1.447       .  S
C1538      C3509   1.447       .  S
C1538      H1542   1.074       .  S
N1539      C1550   1.337       .  A
N1539      N3473   1.325   1_455  A
N1539     Co1549   2.074       .  S
C1543      N1559   1.350       .  A
C1543      C3507   1.454       .  S
C1543      C1857   1.438       .  S
Co1545    Cl1556   2.421       .  S
N1546      C1557   1.351       .  A
C1547      C1854   1.444       .  S
Co1549    Cl3508   2.442   1_455  S
N1553      C3467   1.351       .  A
C1555      C3495   1.454       .  S
Cl1556    Co3501   2.442       .  S
C1557      C3490   1.447   1_455  S
C1560      N1578   1.319       .  A
C1560      C1597   1.482       .  S
C1560      C1865   1.440       .  S
N1561      N1578   1.310       .  A
N1561      N1583   1.312       .  A
N1561     Co1598   2.055       .  S
C1562      N1587   1.340       .  A
C1562      C1600   1.455       .  S
C1562      H1607   1.082       .  S
H1563      C1604   1.082       .  S
C1564      N1588   1.330       .  A
C1564      C1568   1.437       .  S
C1564      H1593   1.082       .  S
Co1565     N1583   2.110       .  S
Co1565     N1573   2.107       .  S
Co1565     N1605   2.032       .  S
Co1565     N1581   2.086       .  S
Co1565    Cl1609   2.463       .  S
N1566      C1604   1.342       .  A
N1566      N1573   1.327       .  A
N1566     Co1567   2.106       .  S
Co1567     N1570   2.081       .  S
Co1567     N1587   2.074       .  S
Co1567     N1574   2.107       .  S
Co1567    Cl1609   2.439       .  S
C1568      N1606   1.351       .  A
C1568      C1861   1.419       .  S
N1569      N1576   1.313       .  A
N1569      N1599   1.329       .  A
N1569     Co1602   2.084       .  S
N1570      N1588   1.317       .  A
N1570      N1606   1.326       .  A
N1571      C1600   1.347       .  A
N1571      N1581   1.325       .  A
H1572      C1597   1.082       .  S
N1573      N1594   1.328       .  A
N1574      N1592   1.323       .  A
N1574      N1579   1.326       .  A
C1575      N1579   1.353       .  A
C1575      C1603   1.449       .  S
C1575      C1849   1.432       .  S
N1576      C1591   1.344       .  A
N1576     Co1598   2.087       .  S
C1577      N1605   1.332       .  A
C1577      C1580   1.442       .  S
C1577      H1611   1.082       .  S
C1580      N1601   1.360       .  A
C1580      C1864   1.442       .  S
N1581      N1587   1.319       .  A
N1582      C1608   1.340       .  A
N1582      N1584   1.316       .  A
N1582     Co1598   2.064       .  S
N1583      C1597   1.353       .  A
N1584      N1612   1.326       .  A
N1584     Co1602   2.092       .  S
H1585      C1608   1.082       .  S
H1586      C1603   1.082       .  S
N1588     Co1602   2.042       .  S
N1589      N1601   1.332       .  A
N1589      N1605   1.321       .  A
N1589     Co1598   2.153       .  S
C1590      N1594   1.352       .  A
C1590      C1604   1.458       .  S
C1590      C1860   1.447       .  S
C1591      C1610   1.451       .  S
C1591      H1595   1.077       .  S
N1592      C1603   1.335       .  A
N1592     Co1602   2.068       .  S
C1596      N1612   1.350       .  A
C1596      C1608   1.455       .  S
C1596      C1858   1.438       .  S
Co1598    Cl1609   2.408       .  S
N1599      C1610   1.352       .  A
C1600      C1851   1.435       .  S
Co1602    Cl1609   2.439       .  S
C1610      C1879   1.453       .  S
C1613      N1631   1.351       .  A
C1613      C1650   1.447       .  S
C1613      C1852   1.435       .  S
N1614      N1631   1.328       .  A
N1614      N1636   1.318       .  A
N1614     Co1651   2.087       .  S
C1615      N1640   1.326       .  A
C1615      C1653   1.426       .  S
C1615      H1660   1.084       .  S
H1616      C1657   1.081       .  S
C1617      N1641   1.342       .  A
C1617      C1621   1.457       .  S
C1617      H1646   1.081       .  S
Co1618     N1636   2.067       .  S
Co1618     N1626   2.030       .  S
Co1618     N1658   2.107       .  S
Co1618     N1634   2.108       .  S
Co1618    Cl1662   2.452       .  S
N1619      C1657   1.348       .  A
N1619      N1626   1.321       .  A
N1619     Co1620   2.131       .  S
Co1620     N1623   2.054       .  S
Co1620     N1640   2.035       .  S
Co1620     N1627   2.069       .  S
Co1620    Cl1662   2.421       .  S
C1621      N1659   1.346       .  A
C1621      C1839   1.435       .  S
N1622      N3581   1.326       .  A
N1622      N1652   1.321       .  A
N1622     Co1655   2.076       .  S
N1623      N3593   1.313       .  A
N1623      N3611   1.324       .  A
N1624      C1653   1.362       .  A
N1624      N1634   1.331       .  A
H1625      C1650   1.082       .  S
N1626      N1647   1.316       .  A
N1627      N3597   1.317       .  A
N1627      N3584   1.325       .  A
C1628      N1632   1.338   1_455  A
C1628      C1656   1.458       .  S
C1628      C1848   1.453   1_455  S
N1629      C3596   1.343       .  A
N1629      N3574   1.326       .  A
N1629     Co1651   2.111       .  S
C1630      N1658   1.343       .  A
C1630      C1633   1.460       .  S
C1630      H1664   1.082       .  S
N1632      N3579   1.325   1_655  A
C1633      N1654   1.350       .  A
C1633      C1842   1.446       .  S
N1634      N1640   1.309       .  A
N1635      C3613   1.349       .  A
N1635      N3589   1.317       .  A
N1635     Co1651   2.095       .  S
N1636      C1650   1.337       .  A
N1637      N3587   1.317   1_455  A
N1637      N1665   1.316       .  A
N1637     Co1655   2.040       .  S
H1638      C3613   1.081       .  S
H1639      C1656   1.076       .  S
N1641      N3575   1.313       .  A
N1641     Co1655   2.082       .  S
N1642      N1654   1.327       .  A
N1642      N1658   1.330       .  A
N1642     Co1651   2.116       .  S
C1643      N1647   1.335       .  A
C1643      C1657   1.472       .  S
C1643      C1843   1.429       .  S
C1644      N3581   1.343       .  A
C1644      C1663   1.461       .  S
C1644      H3600   1.082   1_455  S
N1645      C1656   1.350       .  A
N1645      N3579   1.317       .  A
N1645     Co1655   2.098       .  S
H1648      C3596   1.082       .  S
C1649      N1665   1.332       .  A
C1649      C1661   1.468       .  S
C1649      C1845   1.428       .  S
Co1651    Cl1662   2.440       .  S
N1652      C1663   1.343       .  A
C1653      C1837   1.446       .  S
Co1655    Cl3614   2.437   1_455  S
N1659      N3575   1.324       .  A
C1661      N3587   1.349   1_455  A
C1661      H3590   1.081   1_455  S
Cl1662    Co3607   2.437       .  S
C1663      C1850   1.432       .  S
C1666      N1684   1.349       .  A
C1666      C1703   1.453       .  S
C1666      C1884   1.430       .  S
N1667      N1684   1.324       .  A
N1667      N1689   1.324       .  A
N1667     Co1704   2.098       .  S
C1668      N1693   1.348       .  A
C1668      C1706   1.449       .  S
C1668      H1713   1.075       .  S
H1669      C1710   1.082       .  S
C1670      N3646   1.332       .  A
C1670      C1674   1.443       .  S
C1670      H1699   1.082       .  S
Co1671     N1689   2.075       .  S
Co1671     N1679   2.087       .  S
Co1671     N1711   2.041       .  S
Co1671     N1687   2.084       .  S
Co1671    Cl1715   2.445       .  S
N1672      C1710   1.340       .  A
N1672      N1679   1.315       .  A
N1672     Co1673   2.067       .  S
Co1673     N1676   2.132       .  S
Co1673     N1693   2.095       .  S
Co1673     N1680   2.033       .  S
Co1673    Cl1715   2.420       .  S
C1674      N3664   1.358       .  A
C1674      C1835   1.439       .  S
N1675      N1682   1.320   1_655  A
N1675      N3657   1.325       .  A
N1675     Co1708   2.087       .  S
N1676      N1694   1.323   1_455  A
N1676      N1712   1.330       .  A
N1677      C1706   1.349       .  A
N1677      N1687   1.328       .  A
H1678      C1703   1.082       .  S
N1679      N1700   1.327       .  A
N1680      N1698   1.313   1_455  A
N1680      N1685   1.307       .  A
C1681      N3637   1.324       .  A
C1681      C1709   1.485       .  S
C1681      C3799   1.436       .  S
N1682      C1697   1.340       .  A
N1682     Co1704   2.073       .  S
C1683      C1686   1.436   1_545  S
C1683      H1717   1.082       .  S
N1685      C3633   1.324   1_455  A
C1686      N1707   1.351       .  A
C1686      C1834   1.418       .  S
N1687      N1693   1.317       .  A
N1688      N1690   1.326   1_455  A
N1688     Co1704   2.097       .  S
N1689      C1703   1.337       .  A
N1690      N2694   1.326       .  A
N1690     Co1708   2.100       .  S
H1691      C1714   1.082       .  S
H1692      C1709   1.081       .  S
N1694      C3622   1.332       .  A
N1694     Co1708   2.050       .  S
N1695      N1711   1.316       .  A
N1695     Co1704   2.081       .  S
C1696      N1700   1.351       .  A
C1696      C1710   1.455       .  S
C1696      C1831   1.440       .  S
C1697      C3668   1.454   1_455  S
C1697      H1701   1.082       .  S
N1698      C3661   1.356       .  A
N1698     Co1708   2.111       .  S
C1702      N1718   1.351   1_565  A
C1702      C3666   1.456       .  S
C1702      C1829   1.440       .  S
Co1704    Cl1715   2.441       .  S
N1705      C1716   1.348       .  A
N1705      N3627   1.325       .  A
C1706      C1828   1.454       .  S
Co1708    Cl1715   2.465   1_655  S
C1709      N3650   1.356       .  A
N1712      C3626   1.358   1_455  A
C1714      C3654   1.456   1_455  S
C1716      C3649   1.454       .  S
C1716      C1882   1.435       .  S
N1718      N2666   1.326       .  A
C1719      N1737   1.354       .  A
C1719      C1756   1.449       .  S
C1719      C1856   1.443       .  S
N1720      N1737   1.330       .  A
N1720      N1742   1.320       .  A
N1720     Co1757   2.099       .  S
C1721      N1746   1.325       .  A
C1721      C1759   1.433       .  S
C1721      H1766   1.083       .  S
H1722      C1763   1.081       .  S
C1723      C1727   1.458       .  S
C1723      H1752   1.081       .  S
Co1724     N1742   2.077       .  S
Co1724     N1732   2.041       .  S
Co1724     N1764   2.096       .  S
Co1724     N1740   2.116       .  S
Co1724    Cl1768   2.458       .  S
N1725      C1763   1.349       .  A
Co1726     N1746   2.029       .  S
Co1726     N1733   2.094       .  S
Co1726    Cl1768   2.436       .  S
C1727      N1765   1.349       .  A
C1727      C1841   1.446       .  S
N1728      N1735   1.327       .  A
N1728      N1758   1.326       .  A
N1728     Co1761   2.104       .  S
N1729      N1765   1.327       .  A
N1730      C1759   1.367       .  A
N1730      N1740   1.334       .  A
H1731      C1756   1.082       .  S
N1733      N1751   1.319       .  A
N1733      N1738   1.330       .  A
C1734      N1738   1.348       .  A
C1734      C1762   1.466       .  S
C1734      C1826   1.471       .  S
N1735      C1750   1.343       .  A
N1735     Co1757   2.105       .  S
C1736      N1764   1.342       .  A
C1736      C1739   1.459       .  S
C1736      H1770   1.081       .  S
C1739      N1760   1.346       .  A
C1739      C1840   1.435       .  S
N1740      N1746   1.311       .  A
N1741      C1767   1.348       .  A
N1741      N1743   1.317       .  A
N1741     Co1757   2.098       .  S
N1742      C1756   1.339       .  A
N1743      N1771   1.317       .  A
N1743     Co1761   2.040       .  S
H1744      C1767   1.082       .  S
H1745      C1762   1.078       .  S
N1747     Co1761   2.084       .  S
N1748      N1760   1.323       .  A
N1748      N1764   1.328       .  A
N1748     Co1757   2.099       .  S
C1749      N1753   1.334       .  A
C1749      C1763   1.472       .  S
C1749      C1846   1.428       .  S
C1750      C1769   1.459       .  S
C1750      H1754   1.082       .  S
N1751      C1762   1.354       .  A
N1751     Co1761   2.120       .  S
C1755      N1771   1.334       .  A
C1755      C1767   1.468       .  S
C1755      C1844   1.429       .  S
Co1757    Cl1768   2.446       .  S
N1758      C1769   1.350       .  A
C1759      C1827   1.445       .  S
Co1761    Cl1768   2.447       .  S
C1769      C1853   1.444       .  S
C1772      N1790   1.355       .  A
C1772      C1809   1.454       .  S
C1772      C1886   1.447       .  S
N1773      N1790   1.329       .  A
N1773      N1795   1.324       .  A
N1773     Co1810   2.120       .  S
C1774      N1799   1.350       .  A
C1774      C1812   1.454       .  S
C1774      H1819   1.075       .  S
H1775      C1816   1.082       .  S
C1776      N1800   1.331       .  A
C1776      C1780   1.440       .  S
C1776      H1805   1.082       .  S
Co1777     N1795   2.083       .  S
Co1777     N1785   2.096       .  S
Co1777     N1817   2.037       .  S
Co1777     N1793   2.101       .  S
Co1777    Cl1821   2.438       .  S
N1778      C1816   1.340       .  A
N1778      N1785   1.315       .  A
N1778     Co1779   2.058       .  S
Co1779     N1782   2.137       .  S
Co1779     N1799   2.108       .  S
Co1779     N1786   2.018       .  S
Co1779    Cl1821   2.431       .  S
C1780      N1818   1.359       .  A
C1780      C1836   1.439       .  S
N1781      N1788   1.322       .  A
N1781      N1811   1.327       .  A
N1781     Co1814   2.099       .  S
N1782      N1800   1.323       .  A
N1782      N1818   1.332       .  A
N1783      C1812   1.356       .  A
N1783      N1793   1.333       .  A
H1784      C1809   1.082       .  S
N1785      N1806   1.327       .  A
N1786      N1804   1.312       .  A
N1786      N1791   1.305       .  A
C1787      N1791   1.319       .  A
C1787      C1815   1.492       .  S
C1787      C1838   1.432       .  S
N1788      C1803   1.340       .  A
N1788     Co1810   2.078       .  S
C1789      N1817   1.328       .  A
C1789      C1792   1.435       .  S
C1789      H1823   1.082       .  S
C1792      N1813   1.351       .  A
C1792      C1833   1.417       .  S
N1793      N1799   1.315       .  A
N1794      C1820   1.342       .  A
N1794      N1796   1.326       .  A
N1794     Co1810   2.105       .  S
N1795      C1809   1.339       .  A
N1796      N1824   1.326       .  A
N1796     Co1814   2.091       .  S
H1797      C1820   1.082       .  S
H1798      C1815   1.081       .  S
N1800     Co1814   2.048       .  S
N1801      N1813   1.326       .  A
N1801      N1817   1.316       .  A
N1801     Co1810   2.081       .  S
C1802      N1806   1.351       .  A
C1802      C1816   1.454       .  S
C1802      C1832   1.440       .  S
C1803      C1822   1.455       .  S
C1803      H1807   1.082       .  S
N1804      C1815   1.359       .  A
N1804     Co1814   2.125       .  S
C1808      N1824   1.349       .  A
C1808      C1820   1.458       .  S
C1808      C1830   1.440       .  S
Co1810    Cl1821   2.449       .  S
N1811      C1822   1.349       .  A
C1812      C1825   1.471       .  S
Co1814    Cl1821   2.466       .  S
C1822      C1887   1.439       .  S
C1825      C1826   1.227       .  T
C1829      C1830   1.208       .  T
C1831      C1832   1.208       .  T
C1833      C1834   1.196       .  T
C1835      C1836   1.208       .  T
C1837      C1838   1.214       .  T
C1839      C1840   1.205       .  T
C1841      C1842   1.212       .  T
C1843      C1844   1.203       .  T
C1845      C1846   1.203       .  T
C1847      C3633   1.436       .  S
C1847      C1848   1.215       .  T
C1849      C1850   1.203       .  T
C1851      C1852   1.205       .  T
C1853      C1854   1.210       .  T
C1855      C1856   1.210       .  T
C1857      C1858   1.207       .  T
C1859      C1860   1.213       .  T
C1861      C1862   1.196       .  T
C1863      C1864   1.210       .  T
C1865      C1866   1.213       .  T
C1867      C1868   1.221       .  T
C1869      C3368   1.443       .  S
C1869      C1870   1.218       .  T
C1871      C1872   1.204       .  T
C1873      C1874   1.201       .  T
C1875      C1876   1.202       .  T
C1877      C1878   1.204       .  T
C1879      C1880   1.216       .  T
C1881      C1882   1.205       .  T
C1883      C1884   1.202       .  T
C1885      C1886   1.212       .  T
C1887      C1888   1.208       .  T
C1888      C3287   1.439       .  S
C1889      C1890   1.208       .  T
C1891      C1892   1.208       .  T
C1893      C1894   1.199       .  T
C1894      C3277   1.424       .  S
C1895      C1896   1.212       .  T
C1899      C1900   1.216       .  T
C1901      C1902   1.219       .  T
C1903      C1904   1.207       .  T
C1905      C1906   1.209       .  T
C1907      C1908   1.211       .  T
C1909      C1910   1.199       .  T
C1911      C1912   1.220   1_554  T
C1913      C1914   1.201       .  T
C1915      C1916   1.215       .  T
C1917      C1918   1.202       .  T
C1919      C1920   1.205       .  T
C1921      C1922   1.215       .  T
C1923      C1924   1.209       .  T
C1925      C1926   1.198       .  T
C1927      C1928   1.201       .  T
C1929      C1930   1.201       .  T
C1931      C1932   1.201       .  T
C1933      C1934   1.220       .  T
C1935      C3012   1.456       .  S
C1935      C1936   1.221       .  T
C1937      C1938   1.209       .  T
C1939      C1940   1.206       .  T
C1941      C1942   1.217       .  T
C1943      C1944   1.209       .  T
C1945      C1946   1.210       .  T
C1947      C1948   1.207       .  T
C1949      C1950   1.211       .  T
C1951      C1952   1.214       .  T
C1953      N1971   1.350       .  A
C1953      C1990   1.458       .  S
C1953      C2918   1.454       .  S
N1954      N1971   1.329       .  A
N1954      N1976   1.319       .  A
N1954     Co1991   2.096       .  S
C1955      N1980   1.343       .  A
C1955      C1993   1.462       .  S
C1955      H2000   1.082       .  S
H1956      C1997   1.081       .  S
C1957      N1981   1.345       .  A
C1957      C1961   1.463       .  S
C1957      H1986   1.081       .  S
Co1958     N1976   2.090       .  S
Co1958     N1966   2.076       .  S
Co1958     N1998   2.091       .  S
Co1958     N1974   2.079       .  S
Co1958    Cl2002   2.464       .  S
N1959      C1997   1.344       .  A
N1959      N1966   1.317       .  A
N1959     Co1960   2.080       .  S
Co1960     N1963   2.096       .  S
Co1960     N1980   2.105       .  S
Co1960     N1967   2.081       .  S
Co1960    Cl2002   2.437       .  S
C1961      N1999   1.346       .  A
C1961      C2920   1.441       .  S
N1962      N1969   1.314       .  A
N1962      N1992   1.332       .  A
N1962     Co1995   2.115       .  S
N1963      N1981   1.327       .  A
N1963      N1999   1.324       .  A
N1964      C1993   1.345       .  A
N1964      N1974   1.323       .  A
H1965      C1990   1.079       .  S
N1966      N1987   1.323       .  A
N1967      N1985   1.321       .  A
N1967      N1972   1.325       .  A
C1968      N1972   1.348       .  A
C1968      C1996   1.458       .  S
C1968      C2914   1.442       .  S
N1969      C1984   1.328       .  A
N1969     Co1991   2.036       .  S
C1970      N1998   1.345       .  A
C1970      C2949   1.461   1_545  S
C1970      H2004   1.081       .  S
C1973      N1994   1.346       .  A
C1973      C2946   1.461       .  S
C1973      C2922   1.443       .  S
N1974      N1980   1.324       .  A
N1975      C2001   1.348       .  A
N1975      N2953   1.324       .  A
N1975     Co2967   2.122       .  S
N1976      C1990   1.345       .  A
N1977      N2951   1.324       .  A
N1977      N2981   1.323   1_545  A
N1977     Co1995   2.076       .  S
H1978      C2001   1.081       .  S
H1979      C1996   1.082       .  S
N1981     Co1995   2.109       .  S
N1982      N2970   1.325   1_545  A
N1982      N1998   1.316       .  A
N1982     Co1991   2.070       .  S
C1983      N1987   1.345       .  A
C1983      C1997   1.459       .  S
C1983      C2923   1.437       .  S
C1984      C2003   1.440       .  S
C1984      H1988   1.083       .  S
N1985      C1996   1.343       .  A
N1985     Co1995   2.091       .  S
C1989      N2005   1.345       .  A
C1989      C2001   1.467       .  S
C1989      C2925   1.444       .  S
Co1991     N2951   2.122       .  S
Co1991    Cl2002   2.429       .  S
N1992      C2003   1.363       .  A
C1993      C2916   1.436       .  S
N1994      N2958   1.325       .  A
Co1995    Cl2002   2.467       .  S
C2003      C2928   1.445       .  S
N2005      N2953   1.323       .  A
C2006      N2024   1.348       .  A
C2006      C2043   1.459       .  S
C2006      C2926   1.445       .  S
N2007      N2029   1.318       .  A
N2007     Co2044   2.074       .  S
C2008      N2033   1.326       .  A
C2008      C2046   1.438       .  S
C2008      H2053   1.083       .  S
H2009      C2050   1.080       .  S
C2010      C2014   1.460       .  S
C2010      H2039   1.082       .  S
Co2011     N2029   2.096       .  S
Co2011     N2019   2.039       .  S
Co2011     N2051   2.090       .  S
Co2011     N2027   2.154       .  S
Co2011    Cl2055   2.435       .  S
N2012      N2019   1.319       .  A
N2012     Co2013   2.137       .  S
Co2013     N2016   2.089       .  S
Co2013     N2033   2.026       .  S
Co2013     N2020   2.077       .  S
Co2013    Cl2055   2.421       .  S
C2014      N2052   1.349       .  A
C2014      C2919   1.442       .  S
N2015      N2022   1.321       .  A
N2015     Co2048   2.078       .  S
N2016      N2034   1.324       .  A
N2017      C2046   1.366       .  A
N2017      N2027   1.334       .  A
H2018      C2043   1.081       .  S
N2019      N2040   1.315       .  A
N2020      N2038   1.316       .  A
N2020      N2025   1.324       .  A
C2021      N2025   1.344       .  A
C2021      C2049   1.459       .  S
C2021      C2924   1.437       .  S
N2022     Co2044   2.080       .  S
C2023      N2051   1.341       .  A
C2023      C2026   1.459       .  S
C2023      H2057   1.082       .  S
C2026      N2047   1.350       .  A
C2026      C2921   1.443       .  S
N2027      N2033   1.316       .  A
N2028      C2054   1.337       .  A
N2028      N2030   1.322       .  A
N2028     Co2044   2.072       .  S
N2030      N2058   1.325       .  A
N2030     Co2048   2.090       .  S
H2031      C2054   1.082       .  S
H2032      C2049   1.081       .  S
N2034     Co2048   2.102       .  S
N2035      N2047   1.326       .  A
N2035      N2051   1.322       .  A
N2035     Co2044   2.096       .  S
C2036      C2050   1.479       .  S
C2037      C2056   1.452       .  S
C2037      H2041   1.082       .  S
N2038      C2049   1.345       .  A
N2038     Co2048   2.075       .  S
C2042      N2058   1.348       .  A
C2042      C2054   1.449       .  S
C2042      C2908   1.429       .  S
Co2044    Cl2055   2.439       .  S
N2045      C2056   1.347       .  A
C2046      C2909   1.455       .  S
Co2048    Cl2055   2.448       .  S
C2056      C2905   1.427       .  S
C2059      N2077   1.332       .  A
C2059      C2096   1.475       .  S
C2059      C2912   1.457       .  S
N2060     Co2097   2.051   1_455  S
C2061      N2086   1.344       .  A
C2061      C2099   1.460       .  S
H2062      C2103   1.082       .  S
C2063      N2087   1.331   1_545  A
C2063      C2067   1.438       .  S
C2063      H2092   1.082   1_545  S
Co2064     N2082   2.105       .  S
Co2064     N2072   2.127       .  S
Co2064     N2104   2.040       .  S
Co2064     N2080   2.068       .  S
N2065      C2103   1.340       .  A
N2065      N3048   1.329   1_545  A
Co2066     N3045   2.084       .  S
Co2066     N2073   2.097       .  S
Co2066    Cl2108   2.438       .  S
C2067      N2105   1.351       .  A
C2067      C2902   1.421       .  S
N2068      N2075   1.318       .  A
N2068      N2098   1.327       .  A
N2068     Co2101   2.090       .  S
N2069      N2087   1.316   1_545  A
N2069      N2105   1.326       .  A
N2069     Co3042   2.084   1_545  S
N2070      C2099   1.343       .  A
N2070      N2080   1.322       .  A
H2071      C2096   1.082       .  S
N2072      N3041   1.329       .  A
N2072      N3069   1.331       .  A
N2073      N2091   1.325       .  A
N2073      N2078   1.324       .  A
C2074      N2078   1.348       .  A
C2074      C2102   1.453       .  S
C2074      C2894   1.429       .  S
N2075      C2090   1.347       .  A
N2075     Co2097   2.087       .  S
C2076      N2104   1.329       .  A
C2076      C2079   1.441       .  S
C2076      H2110   1.082       .  S
C2079      C2903   1.426       .  S
N2080      N2086   1.317       .  A
N2081      C2107   1.340       .  A
N2081      N2083   1.313       .  A
N2081     Co2097   2.069       .  S
N2082      C2096   1.357       .  A
N2083      N2111   1.328       .  A
N2083     Co2101   2.080       .  S
H2084      C2107   1.082       .  S
H2085      C2102   1.082       .  S
N2087     Co3077   2.042       .  S
N2088      N2100   1.327   1_655  A
N2088     Co2097   2.123       .  S
C2089      N2093   1.357       .  A
C2089      C2103   1.454       .  S
C2089      C2897   1.451       .  S
C2090      C2109   1.454       .  S
C2090      H2094   1.080       .  S
N2091      C2102   1.337       .  A
N2091     Co2101   2.081       .  S
N2093      N3048   1.331   1_545  A
C2095      N2111   1.351       .  A
C2095      C2107   1.453       .  S
C2095      C2900   1.442       .  S
Co2097    Cl2108   2.420       .  S
N2098      C2109   1.349       .  A
C2099      C2895   1.434       .  S
Co2101     N3063   2.042       .  S
Co2101    Cl2108   2.451       .  S
C2109      C3903   1.451       .  S
C2112      N2130   1.331       .  A
C2112      C2149   1.476       .  S
C2112      C2910   1.455       .  S
N2113      N2130   1.316       .  A
N2113      N2135   1.318       .  A
N2113     Co2150   2.046       .  S
C2114      N2139   1.341       .  A
C2114      C2152   1.457       .  S
C2114      H2159   1.082       .  S
H2115      C2156   1.082       .  S
C2116      N2140   1.331       .  A
C2116      C2120   1.438       .  S
C2116      H2145   1.082       .  S
Co2117     N2135   2.108       .  S
Co2117     N2125   2.120       .  S
Co2117     N2157   2.044       .  S
Co2117     N2133   2.065       .  S
Co2117    Cl2161   2.452       .  S
N2118      C2156   1.341       .  A
N2118      N2125   1.328       .  A
N2118     Co2119   2.106       .  S
Co2119     N2122   2.081       .  S
Co2119     N2139   2.072       .  S
Co2119     N2126   2.116       .  S
Co2119    Cl2161   2.449       .  S
C2120      N2158   1.351       .  A
C2120      C2901   1.421       .  S
N2121      N2128   1.319       .  A
N2121      N2151   1.329       .  A
N2121     Co2154   2.099       .  S
N2122      N2140   1.316       .  A
N2122      N2158   1.326       .  A
N2123      C2152   1.341       .  A
N2123      N2133   1.321       .  A
H2124      C2149   1.082       .  S
N2125      N2146   1.330       .  A
N2126      N2144   1.325       .  A
N2126      N2131   1.329       .  A
C2127      N2131   1.353       .  A
C2127      C2155   1.460       .  S
C2127      C2891   1.452       .  S
N2128      C2143   1.346       .  A
N2128     Co2150   2.090       .  S
C2129      N2157   1.329       .  A
C2129      C2132   1.441       .  S
C2129      H2163   1.082       .  S
C2132      N2153   1.355       .  A
C2132      C2904   1.426       .  S
N2133      N2139   1.318       .  A
N2134      C2160   1.339       .  A
N2134      N2136   1.315       .  A
N2134     Co2150   2.065       .  S
N2135      C2149   1.357       .  A
N2136      N2164   1.328       .  A
N2136     Co2154   2.084       .  S
H2137      C2160   1.082       .  S
H2138      C2155   1.081       .  S
N2140     Co2154   2.043       .  S
N2141      N2153   1.327       .  A
N2141      N2157   1.322       .  A
N2141     Co2150   2.120       .  S
C2142      N2146   1.356       .  A
C2142      C2156   1.455       .  S
C2142      C2898   1.451       .  S
C2143      C2162   1.457       .  S
C2143      H2147   1.080       .  S
N2144      C2155   1.343       .  A
N2144     Co2154   2.098       .  S
C2148      N2164   1.352       .  A
C2148      C2160   1.452       .  S
C2148      C2899   1.441       .  S
Co2150    Cl2161   2.423       .  S
N2151      C2162   1.351       .  A
C2152      C2890   1.427       .  S
Co2154    Cl2161   2.450       .  S
C2162      C2917   1.455       .  S
C2165      N2183   1.348       .  A
C2165      C2202   1.464       .  S
C2165      C2892   1.452       .  S
N2166      N2183   1.327       .  A
N2166      N2188   1.321       .  A
N2166     Co2203   2.082       .  S
C2167      N2192   1.323       .  A
C2167      C2205   1.432       .  S
C2167      H2212   1.084       .  S
H2168      C2209   1.081       .  S
C2169      N2193   1.342       .  A
C2169      C2173   1.457       .  S
C2169      H2198   1.082       .  S
Co2170     N2188   2.111       .  S
Co2170     N2178   2.044       .  S
Co2170     N2210   2.098       .  S
Co2170     N2186   2.136       .  S
Co2170    Cl2214   2.471       .  S
N2171      C2209   1.352       .  A
N2171      N2178   1.324       .  A
N2171     Co2172   2.146       .  S
Co2172     N2175   2.071       .  S
Co2172     N2192   2.025       .  S
Co2172     N2179   2.103       .  S
Co2172    Cl2214   2.416       .  S
C2173      C2880   1.439       .  S
N2174      N2204   1.319       .  A
N2174     Co2207   2.068       .  S
N2175      N2211   1.325   1_655  A
N2176      C2205   1.370       .  A
N2176      N2186   1.335       .  A
H2177      C2202   1.081       .  S
N2178      N2199   1.319       .  A
C2180      N2184   1.350       .  A
C2180      C2208   1.461       .  S
C2180      C2887   1.460       .  S
N2181      C2196   1.342       .  A
N2181     Co2203   2.101       .  S
C2182      N2210   1.343       .  A
C2182      C2185   1.459       .  S
C2182      H2216   1.081       .  S
C2185      N2206   1.349       .  A
C2185      C2882   1.442       .  S
N2186      N2192   1.311       .  A
N2187      C2213   1.344       .  A
N2187     Co2203   2.084       .  S
N2188      C2202   1.348       .  A
N2189      N2217   1.317       .  A
N2189     Co2207   2.048       .  S
H2190      C2213   1.082       .  S
H2191      C2208   1.079       .  S
N2193     Co2207   2.081       .  S
N2194      N2206   1.325       .  A
N2194      N2210   1.327       .  A
N2194     Co2203   2.104       .  S
C2195      N2199   1.338       .  A
C2195      C2209   1.475       .  S
C2195      C2883   1.444       .  S
C2196      H2200   1.082       .  S
N2197      C2208   1.349       .  A
N2197     Co2207   2.089       .  S
C2201      N2217   1.335       .  A
C2201      C2885   1.423       .  S
Co2203    Cl2214   2.444       .  S
N2204      C2215   1.342       .  A
C2205      C2877   1.449   1_554  S
C2215      C2889   1.427       .  S
C2218      N2236   1.346       .  A
C2218      C2255   1.453       .  S
C2218      C2893   1.429       .  S
N2219      N2236   1.323       .  A
N2219      N2241   1.320       .  A
N2219     Co2256   2.072       .  S
C2220      N2245   1.323       .  A
C2220      C2258   1.427       .  S
C2220      H2265   1.085       .  S
H2221      C2262   1.081       .  S
C2222      N3222   1.342       .  A
C2222      C2226   1.457   1_565  S
C2222      H2251   1.081       .  S
Co2223     N2241   2.080       .  S
Co2223     N2231   2.045       .  S
Co2223     N2263   2.093       .  S
Co2223     N2239   2.108       .  S
Co2223    Cl2267   2.458       .  S
N2224      C2262   1.352       .  A
N2224      N3207   1.323   1_545  A
N2224     Co3201   2.140   1_545  S
Co2225     N3200   2.140       .  S
Co2225     N3204   2.065       .  S
Co2225     N2245   2.028       .  S
Co2225     N2232   2.079       .  S
Co2225    Cl2267   2.423       .  S
C2226      N2264   1.348       .  A
C2226      C2879   1.439       .  S
N2227      N2234   1.325       .  A
N2227      N2257   1.320       .  A
N2227     Co2260   2.069       .  S
N2228      N3222   1.315       .  A
N2228      N2264   1.325   1_565  A
N2228     Co3201   2.065       .  S
N2229      C2258   1.365       .  A
N2229      N2239   1.329       .  A
H2230      C2255   1.082       .  S
N2231      N3200   1.323       .  A
N2231      N3228   1.319       .  A
N2232      N2250   1.316       .  A
N2232      N2237   1.326       .  A
C2233      N2237   1.339       .  A
C2233      C2261   1.457       .  S
C2233      C2876   1.454       .  S
N2234      C2249   1.344       .  A
N2234     Co2256   2.114       .  S
C2235      N2263   1.341       .  A
C2235      C2238   1.455       .  S
C2235      H2269   1.082       .  S
C2238      N2259   1.351       .  A
C2238      C2881   1.442       .  S
N2239      N2245   1.308       .  A
N2240      C2266   1.345       .  A
N2240      N2242   1.317       .  A
N2240     Co2256   2.077       .  S
N2241      C2255   1.340       .  A
N2242      N2270   1.317       .  A
N2242     Co2260   2.050       .  S
H2243      C2266   1.082       .  S
H2244      C2261   1.076       .  S
N2246      C3198   1.342       .  A
N2246      N3204   1.315       .  A
N2246     Co2260   2.085       .  S
N2247      N2259   1.327       .  A
N2247      N2263   1.327       .  A
N2247     Co2256   2.112       .  S
C2248      N2252   1.338       .  A
C2248      C2262   1.474       .  S
C2248      C2884   1.444       .  S
C2249      C2268   1.464       .  S
C2249      H2253   1.081       .  S
N2250      C2261   1.350       .  A
N2250     Co2260   2.090       .  S
N2252      N3207   1.319   1_545  A
C2254      N2270   1.335       .  A
C2254      C2266   1.461       .  S
C2254      C2886   1.422       .  S
Co2256    Cl2267   2.437       .  S
N2257      C2268   1.343       .  A
C2258      C2874   1.436       .  S
Co2260    Cl2267   2.443       .  S
C2268      C2896   1.434       .  S
C2271      N2289   1.350       .  A
C2271      C2888   1.461       .  S
N2272      N2289   1.329       .  A
N2272      N2294   1.317       .  A
N2272     Co2309   2.099       .  S
C2273      N2298   1.344       .  A
C2273      C2311   1.461       .  S
C2273      H2318   1.082       .  S
H2274      C2315   1.082       .  S
C2275      N2299   1.342       .  A
C2275      C2279   1.457       .  S
C2275      H2304   1.081       .  S
Co2276     N2294   2.096       .  S
Co2276     N2284   2.048       .  S
Co2276     N2316   2.083       .  S
Co2276     N2292   2.084       .  S
Co2276    Cl2320   2.451       .  S
N2277      C2315   1.345       .  A
N2277      N2284   1.318       .  A
N2277     Co2278   2.087       .  S
Co2278     N2281   2.104       .  S
Co2278     N2298   2.105       .  S
Co2278     N2285   2.087       .  S
Co2278    Cl2320   2.446       .  S
C2279      N2317   1.349       .  A
C2279      C2867   1.439       .  S
N2280      N2287   1.311       .  A
N2280      N2310   1.333       .  A
N2280     Co2313   2.124       .  S
N2281      N2299   1.326       .  A
N2281      N2317   1.325       .  A
H2283      C2308   1.079       .  S
N2284      N2305   1.317       .  A
N2285      N2303   1.321       .  A
N2285      N2290   1.327       .  A
C2286      N2290   1.349       .  A
C2286      C2314   1.459       .  S
C2286      C2861   1.447       .  S
N2287      C2302   1.323       .  A
N2287     Co2309   2.028       .  S
C2288      C2291   1.458       .  S
C2288      H2322   1.081       .  S
C2291      C2865   1.440       .  S
N2292      N2298   1.325       .  A
N2293      C2319   1.352       .  A
N2293      N2295   1.324       .  A
N2293     Co2309   2.143       .  S
N2295      N2323   1.319       .  A
N2295     Co2313   2.047       .  S
H2296      C2319   1.082       .  S
H2297      C2314   1.081       .  S
N2299     Co2313   2.092       .  S
N2300      N2312   1.325       .  A
N2300      N2316   1.316       .  A
N2300     Co2309   2.072       .  S
C2301      N2305   1.335       .  A
C2301      C2315   1.462       .  S
C2302      C2321   1.434       .  S
C2302      H2306   1.084       .  S
N2303      C2314   1.345       .  A
N2303     Co2313   2.098       .  S
C2307      N2323   1.338       .  A
C2307      C2319   1.475       .  S
C2307      C2871   1.444       .  S
Co2309    Cl2320   2.421       .  S
N2310      C2321   1.368       .  A
Co2313    Cl2320   2.469       .  S
C2321      C2875   1.444   1_556  S
C2324      N2342   1.339       .  A
C2324      C2361   1.458       .  S
C2324      C2878   1.459       .  S
N2325      N2342   1.326       .  A
N2325      N2347   1.317       .  A
N2325     Co2362   2.083       .  S
C2326      N2351   1.343       .  A
C2326      C2364   1.461       .  S
C2326      H2371   1.081       .  S
H2327      C2368   1.081       .  S
C2328      N2352   1.341       .  A
C2328      C2332   1.456       .  S
C2328      H2357   1.081       .  S
Co2329     N2347   2.098       .  S
Co2329     N2337   2.046       .  S
Co2329     N2369   2.089       .  S
Co2329     N2345   2.079       .  S
Co2329    Cl2373   2.440       .  S
N2330      C2368   1.346       .  A
N2330      N2337   1.317       .  A
N2330     Co2331   2.081       .  S
Co2331     N2334   2.106       .  S
Co2331     N2351   2.108       .  S
Co2331     N2338   2.072       .  S
Co2331    Cl2373   2.442       .  S
C2332      N2370   1.350       .  A
C2332      C2868   1.439       .  S
N2333      N2340   1.308       .  A
N2333      N2363   1.330       .  A
N2333     Co2366   2.110       .  S
N2334      N2352   1.326       .  A
N2334      N2370   1.326       .  A
N2335      C2364   1.346       .  A
N2335      N2345   1.322       .  A
H2336      C2361   1.076       .  S
N2337      N2358   1.317       .  A
N2338      N2356   1.320       .  A
N2338      N2343   1.323       .  A
C2339      N2343   1.346       .  A
C2339      C2367   1.454       .  S
C2339      C2859   1.430       .  S
N2340      C2355   1.322       .  A
N2340     Co2362   2.025       .  S
C2341      N2369   1.343       .  A
C2341      C3320   1.458   1_545  S
C2341      H2375   1.081       .  S
C2344      N2365   1.348       .  A
C2344      C3317   1.458       .  S
C2344      C2866   1.440       .  S
N2345      N2351   1.325       .  A
N2346      C3348   1.352   1_545  A
N2346      N2348   1.324       .  A
N2346     Co2362   2.140       .  S
N2347      C2361   1.352       .  A
N2348      N3352   1.319   1_545  A
N2348     Co2366   2.049       .  S
H2349      C2372   1.081       .  S
H2350      C2367   1.082       .  S
N2352     Co2366   2.091       .  S
N2353      N3341   1.325   1_545  A
N2353      N2369   1.315       .  A
N2353     Co2362   2.063       .  S
C2354      N2358   1.334       .  A
C2354      C2368   1.462       .  S
C2354      C2869   1.423       .  S
C2355      C2374   1.427       .  S
C2355      H2359   1.085       .  S
N2356      C2367   1.340       .  A
N2356     Co2366   2.080       .  S
C2360      N2376   1.338       .  A
C2360      C2372   1.475       .  S
C2360      C2872   1.445       .  S
Co2362    Cl2373   2.421       .  S
N2363      C2374   1.367       .  A
C2364      C2857   1.435       .  S
N2365      N3329   1.325       .  A
Co2366    Cl2373   2.463       .  S
C2372      N3322   1.352       .  A
C2374      C2873   1.435   1_556  S
N2376      N3324   1.319       .  A
C2377      N2395   1.353       .  A
C2377      C2414   1.449       .  S
C2377      C2915   1.436       .  S
N2378      N2395   1.328       .  A
N2378      N2400   1.323       .  A
N2378     Co2415   2.108       .  S
C2379      N2404   1.344       .  A
C2379      C2417   1.452       .  S
C2379      H2424   1.077       .  S
H2380      C2421   1.082       .  S
C2381      C3361   1.438   1_545  S
C2381      H2410   1.082       .  S
Co2382     N2400   2.074       .  S
Co2382     N2390   2.078       .  S
Co2382     N2422   2.046       .  S
Co2382     N2398   2.089       .  S
Co2382    Cl2426   2.442       .  S
N2383      C3397   1.338   1_545  A
N2383      N2390   1.314       .  A
N2383     Co2384   2.051       .  S
Co2384     N2387   2.126       .  S
Co2384     N2404   2.093       .  S
Co2384     N2391   2.029       .  S
Co2384    Cl2426   2.424       .  S
C2385      C3357   1.438       .  S
C2385      C2852   1.428       .  S
N2386      N2393   1.321       .  A
N2386     Co2419   2.085       .  S
N2387      N2405   1.321       .  A
N2387      N3399   1.329   1_545  A
N2388      C2417   1.352       .  A
N2388      N2398   1.329       .  A
H2389      C2414   1.081       .  S
N2390      N2411   1.324       .  A
N2391      N2409   1.314       .  A
N2391      N2396   1.309       .  A
C2392      C2420   1.489       .  S
N2393      C2408   1.346       .  A
N2393     Co2415   2.092       .  S
C2394      N2422   1.333       .  A
C2394      C2397   1.440       .  S
C2394      H2428   1.081       .  S
C2397      N2418   1.355       .  A
C2397      C2853   1.431       .  S
N2398      N2404   1.316       .  A
N2399      C2425   1.338       .  A
N2399      N2401   1.327       .  A
N2399     Co2415   2.094       .  S
N2400      C2414   1.336       .  A
N2401     Co2419   2.097       .  S
H2402      C2425   1.082       .  S
H2403      C2420   1.081       .  S
N2405     Co2419   2.038       .  S
N2406      N2418   1.329       .  A
N2406      N2422   1.317       .  A
N2406     Co2415   2.100       .  S
C2407      N3387   1.348       .  A
C2407      C2421   1.451       .  S
C2407      C2849   1.428       .  S
C2408      H2412   1.082       .  S
N2409     Co2419   2.126       .  S
N2411      C3383   1.348   1_545  A
C2413      N2429   1.350       .  A
C2413      C2848   1.434       .  S
Co2415    Cl2426   2.449       .  S
N2416      C2427   1.344       .  A
C2417      C2856   1.453       .  S
Co2419    Cl2426   2.464       .  S
C2421      N3359   1.338       .  A
N2423      N3363   1.329       .  A
C2427      C2913   1.442       .  S
C2430      N2448   1.347       .  A
C2430      C2467   1.453       .  S
C2430      C2906   1.427       .  S
N2431      N2448   1.324       .  A
N2431      N2453   1.323       .  A
N2431     Co2468   2.091       .  S
C2432      N2457   1.344       .  A
C2432      C2470   1.445       .  S
C2432      H2477   1.074       .  S
H2433      C2474   1.082       .  S
C2434      N2458   1.331       .  A
C2434      C2438   1.440       .  S
C2434      H2463   1.082       .  S
Co2435     N2453   2.081       .  S
Co2435     N2443   2.095       .  S
Co2435     N2475   2.037       .  S
Co2435     N2451   2.097       .  S
Co2435    Cl2479   2.425       .  S
N2436      C2474   1.337       .  A
N2436      N2443   1.314       .  A
N2436     Co2437   2.043       .  S
Co2437     N2440   2.129       .  S
Co2437     N2457   2.087       .  S
Co2437     N2444   2.035       .  S
Co2437    Cl2479   2.425       .  S
C2438      N2476   1.357       .  A
C2438      C2854   1.431       .  S
N2439      N2446   1.319       .  A
N2439      N2469   1.322       .  A
N2439     Co2472   2.074       .  S
N2440      N2458   1.321       .  A
N2440      N2476   1.329       .  A
N2441      C2470   1.354       .  A
N2441      N2451   1.330       .  A
H2442      C2467   1.081       .  S
N2443      N2464   1.326       .  A
N2444      N2462   1.310       .  A
N2444      N2449   1.305       .  A
C2445      N2449   1.318       .  A
C2445      C2473   1.487       .  S
C2445      C2842   1.429       .  S
N2446      C2461   1.341       .  A
N2446     Co2468   2.077       .  S
C2447      N2475   1.330       .  A
C2447      C2450   1.435       .  S
C2447      H2481   1.082       .  S
C2450      N2471   1.356       .  A
C2450      C2851   1.427       .  S
N2451      N2457   1.314       .  A
N2452      C2478   1.337       .  A
N2452      N2454   1.326       .  A
N2452     Co2468   2.086       .  S
N2453      C2467   1.338       .  A
N2454      N2482   1.324       .  A
N2454     Co2472   2.093       .  S
H2455      C2478   1.082       .  S
H2456      C2473   1.081       .  S
N2458     Co2472   2.038       .  S
N2459      N2471   1.329       .  A
N2459      N2475   1.315       .  A
N2459     Co2468   2.095       .  S
C2460      N2464   1.351       .  A
C2460      C2474   1.450       .  S
C2460      C2847   1.434       .  S
C2461      C2480   1.455       .  S
C2461      H2465   1.082       .  S
N2462      C2473   1.355       .  A
N2462     Co2472   2.104       .  S
C2466      N2482   1.348       .  A
C2466      C2478   1.451       .  S
C2466      C2850   1.429       .  S
Co2468    Cl2479   2.445       .  S
N2469      C2480   1.344       .  A
C2470      C2843   1.462       .  S
Co2472    Cl2479   2.461       .  S
C2480      C2907   1.429       .  S
C2483      N2501   1.320       .  A
C2483      C2520   1.492       .  S
C2483      C2844   1.446       .  S
N2484      N2501   1.308       .  A
N2484      N2506   1.312       .  A
N2484     Co2521   2.032       .  S
C2485      N2510   1.341       .  A
C2485      C2523   1.454       .  S
C2485      H2530   1.082       .  S
H2486      C2527   1.082       .  S
C2487      N2511   1.330       .  A
C2487      C2491   1.436       .  S
C2487      H2516   1.082       .  S
Co2488     N2506   2.131       .  S
Co2488     N3472   2.110       .  S
Co2488     N2528   2.045       .  S
Co2488     N2504   2.102       .  S
Co2488    Cl2532   2.469       .  S
N2489      C2527   1.343       .  A
N2489      N2496   1.328       .  A
N2489     Co2490   2.111   1_545  S
Co2490     N2493   2.082   1_565  S
Co2490     N3486   2.076       .  S
Co2490     N3473   2.124       .  S
Co2490    Cl3508   2.448       .  S
C2491      C2838   1.419       .  S
N2492      N2522   1.330       .  A
N2492     Co2525   2.087       .  S
N2493      N2529   1.326       .  A
N2494      C2523   1.351       .  A
N2494      N2504   1.328       .  A
H2495      C2520   1.081       .  S
N2496      N2517   1.328       .  A
N2496     Co3464   2.110   1_545  S
N2497      N2502   1.330   1_655  A
N2497     Co3466   2.124       .  S
C2498      C2526   1.449       .  S
C2498      C2831   1.443       .  S
N2499      C2514   1.348       .  A
N2499     Co2521   2.094       .  S
C2500      N2528   1.332       .  A
C2500      C2503   1.443       .  S
C2500      H2534   1.082       .  S
C2503      N2524   1.359       .  A
C2503      C2839   1.442       .  S
N2504      N2510   1.321       .  A
N2505      C2531   1.340   1_655  A
N2505     Co2521   2.063       .  S
N2506      C2520   1.361       .  A
N2507      N2535   1.327       .  A
N2507     Co2525   2.088       .  S
H2508      C2531   1.082   1_655  S
H2509      C2526   1.082       .  S
N2510     Co3466   2.076       .  S
N2511     Co3501   2.038   1_545  S
N2512      N2524   1.331       .  A
N2512      N2528   1.324       .  A
N2512     Co2521   2.143       .  S
C2513      N2517   1.352       .  A
C2513      C2527   1.458       .  S
C2513      C2835   1.447       .  S
C2514      H2518   1.074       .  S
N2515      C2526   1.337       .  A
N2515     Co2525   2.074       .  S
C2519      N2535   1.350       .  A
C2519      C2833   1.438       .  S
Co2521    Cl2532   2.421       .  S
N2522      C2533   1.351       .  A
C2523      C2830   1.444       .  S
Co2525     N3487   2.038       .  S
Cl2532    Co3466   2.448       .  S
C2533      C3822   1.458       .  S
C2536      N2554   1.319       .  A
C2536      C2573   1.482       .  S
C2536      C2841   1.440       .  S
N2537      N2554   1.310       .  A
N2537      N2559   1.312       .  A
N2537     Co2574   2.055       .  S
C2538      N2563   1.340       .  A
C2538      C2576   1.455       .  S
C2538      H2583   1.082       .  S
H2539      C2580   1.082       .  S
C2540      N2564   1.330       .  A
C2540      C2544   1.437       .  S
C2540      H2569   1.082       .  S
Co2541     N2559   2.110       .  S
Co2541     N2549   2.107       .  S
Co2541     N2581   2.032       .  S
Co2541     N2557   2.086       .  S
Co2541    Cl2585   2.463       .  S
N2542      C2580   1.342       .  A
N2542      N2549   1.327       .  A
N2542     Co2543   2.106       .  S
Co2543     N2546   2.081       .  S
Co2543     N2563   2.074       .  S
Co2543     N2550   2.107       .  S
Co2543    Cl2585   2.439       .  S
C2544      N2582   1.351       .  A
C2544      C2837   1.419       .  S
N2545      N2552   1.313       .  A
N2545      N2575   1.329       .  A
N2545     Co2578   2.084       .  S
N2546      N2564   1.317       .  A
N2546      N2582   1.326       .  A
N2547      C2576   1.347       .  A
N2547      N2557   1.325       .  A
H2548      C2573   1.082       .  S
N2549      N2570   1.328       .  A
N2550      N2568   1.323       .  A
N2550      N2555   1.326       .  A
C2551      N2555   1.353       .  A
C2551      C2579   1.449       .  S
C2551      C2825   1.432       .  S
N2552      C2567   1.344       .  A
N2552     Co2574   2.087       .  S
C2553      N2581   1.332       .  A
C2553      C2556   1.442       .  S
C2553      H2587   1.082       .  S
C2556      N2577   1.360       .  A
C2556      C2840   1.442       .  S
N2557      N2563   1.319       .  A
N2558      C2584   1.340       .  A
N2558      N2560   1.316       .  A
N2558     Co2574   2.064       .  S
N2559      C2573   1.353       .  A
N2560      N2588   1.326       .  A
N2560     Co2578   2.092       .  S
H2561      C2584   1.082       .  S
H2562      C2579   1.082       .  S
N2564     Co2578   2.042       .  S
N2565      N2577   1.332       .  A
N2565      N2581   1.321       .  A
N2565     Co2574   2.153       .  S
C2566      N2570   1.352       .  A
C2566      C2580   1.458       .  S
C2566      C2836   1.447       .  S
C2567      C2586   1.451       .  S
C2567      H2571   1.077       .  S
N2568      C2579   1.335       .  A
N2568     Co2578   2.068       .  S
C2572      N2588   1.350       .  A
C2572      C2584   1.455       .  S
C2572      C2834   1.438       .  S
Co2574    Cl2585   2.408       .  S
N2575      C2586   1.352       .  A
C2576      C2827   1.435       .  S
Co2578    Cl2585   2.439       .  S
C2586      C2855   1.453       .  S
C2589      N2607   1.351       .  A
C2589      C2626   1.447       .  S
C2589      C2828   1.435       .  S
N2590      N2607   1.328       .  A
N2590      N2612   1.318       .  A
N2590     Co2627   2.087       .  S
C2591      N2616   1.326       .  A
C2591      C2629   1.426       .  S
C2591      H2636   1.084       .  S
H2592      C2633   1.081       .  S
C2593      N2617   1.342       .  A
C2593      C2597   1.457       .  S
C2593      H2622   1.081       .  S
Co2594     N2612   2.067       .  S
Co2594     N2602   2.030       .  S
Co2594     N2634   2.107       .  S
Co2594     N2610   2.108       .  S
Co2594    Cl2638   2.452       .  S
N2595      C2633   1.348       .  A
N2595      N2602   1.321       .  A
N2595     Co2596   2.131       .  S
Co2596     N2599   2.054   1_655  S
Co2596     N2616   2.035       .  S
Co2596     N2603   2.069   1_655  S
Co2596    Cl2638   2.421       .  S
C2597      N2635   1.346       .  A
C2597      C2815   1.435       .  S
N2598      N2628   1.321       .  A
N2598     Co2631   2.076       .  S
N2600      C2629   1.362       .  A
N2600      N2610   1.331       .  A
H2601      C2626   1.082       .  S
N2602      N2623   1.316       .  A
C2604      N2608   1.338       .  A
C2604      C2632   1.458       .  S
C2604      C2824   1.453       .  S
N2605     Co2627   2.111   1_455  S
C2606      N2634   1.343       .  A
C2606      C2609   1.460       .  S
C2606      H2640   1.082       .  S
C2609      N2630   1.350       .  A
C2609      C2818   1.446       .  S
N2610      N2616   1.309       .  A
N2611     Co2627   2.095       .  S
N2612      C2626   1.337       .  A
N2613      N2641   1.316       .  A
N2613     Co2631   2.040       .  S
H2615      C2632   1.076       .  S
N2617     Co2631   2.082       .  S
N2618      N2630   1.327       .  A
N2618      N2634   1.330       .  A
N2618     Co2627   2.116       .  S
C2619      N2623   1.335       .  A
C2619      C2633   1.472       .  S
C2619      C2819   1.429       .  S
C2620      C2639   1.461       .  S
N2621      C2632   1.350       .  A
N2621     Co2631   2.098       .  S
C2625      N2641   1.332       .  A
C2625      C2637   1.468       .  S
C2625      C2821   1.428       .  S
Co2627    Cl2638   2.440       .  S
N2628      C2639   1.343       .  A
C2629      C2813   1.446       .  S
C2639      C2826   1.432       .  S
C2642      N2660   1.349       .  A
C2642      C2679   1.453       .  S
C2642      C2860   1.430       .  S
N2643      N2660   1.324       .  A
N2643      N2665   1.324       .  A
N2643     Co2680   2.098       .  S
C2644      N2669   1.348       .  A
C2644      C2682   1.449       .  S
C2644      H2689   1.075       .  S
H2645      C2686   1.082       .  S
C2646      C2650   1.443       .  S
C2646      H2675   1.082       .  S
Co2647     N2665   2.075       .  S
Co2647     N2655   2.087       .  S
Co2647     N2687   2.041       .  S
Co2647     N2663   2.084       .  S
Co2647    Cl2691   2.445       .  S
N2648      C2686   1.340       .  A
N2648      N2655   1.315       .  A
N2648     Co2649   2.067       .  S
Co2649     N2652   2.132       .  S
Co2649     N2669   2.095       .  S
Co2649     N2656   2.033       .  S
Co2649    Cl2691   2.420       .  S
C2650      C2811   1.439       .  S
N2651      N2658   1.320       .  A
N2651     Co2684   2.087       .  S
N2652      N2670   1.323       .  A
N2652      N2688   1.330       .  A
N2653      C2682   1.349       .  A
N2653      N2663   1.328       .  A
H2654      C2679   1.082       .  S
N2655      N2676   1.327       .  A
N2656      N2674   1.313       .  A
N2656      N2661   1.307       .  A
C2657      C2685   1.485       .  S
N2658      C2673   1.340       .  A
N2658     Co2680   2.073       .  S
C2659      N3663   1.330       .  A
C2659      C2662   1.436       .  S
C2659      H2693   1.082       .  S
C2662      N2683   1.351       .  A
C2662      C2810   1.418       .  S
N2663      N2669   1.317       .  A
N2664      C3666   1.340   1_545  A
N2664      N2666   1.326       .  A
N2664     Co2680   2.097       .  S
N2665      C2679   1.337       .  A
N2666     Co2684   2.100       .  S
H2667      C2690   1.082       .  S
H2668      C2685   1.081       .  S
N2670     Co2684   2.050       .  S
N2671      N3659   1.326   1_545  A
N2671      N2687   1.316       .  A
N2671     Co2680   2.081       .  S
C2672      N2676   1.351       .  A
C2672      C2686   1.455       .  S
C2672      C2807   1.440       .  S
C2673      H2677   1.082       .  S
N2674     Co2684   2.111       .  S
C2678      N2694   1.351       .  A
C2678      C2805   1.440       .  S
Co2680    Cl2691   2.441       .  S
N2681      C2692   1.348       .  A
C2682      C2804   1.454       .  S
N2683      N3647   1.326       .  A
Co2684    Cl2691   2.465       .  S
N2687      C3635   1.330       .  A
C2690      N3640   1.340       .  A
C2692      C2858   1.435       .  S
C2695      N2713   1.354       .  A
C2695      C2732   1.449       .  S
C2695      C2832   1.443       .  S
N2696      N2713   1.330       .  A
N2696      N2718   1.320       .  A
N2696     Co2733   2.099       .  S
C2697      N2722   1.325       .  A
C2697      C2735   1.433       .  S
C2697      H2742   1.083       .  S
H2698      C2739   1.081       .  S
C2699      N3699   1.344   1_545  A
C2699      C2703   1.458       .  S
C2699      H2728   1.081   1_545  S
Co2700     N2718   2.077       .  S
Co2700     N2708   2.041       .  S
Co2700     N2740   2.096       .  S
Co2700     N2716   2.116       .  S
Co2700    Cl2744   2.458       .  S
N2701      C2739   1.349       .  A
N2701      N3684   1.323   1_545  A
N2701     Co3678   2.127   1_545  S
Co2702     N3677   2.127       .  S
Co2702     N3681   2.072       .  S
Co2702     N2722   2.029       .  S
Co2702     N2709   2.094       .  S
Co2702    Cl2744   2.436       .  S
C2703      N2741   1.349       .  A
C2703      C2817   1.446       .  S
N2704      N2711   1.327       .  A
N2704      N2734   1.326       .  A
N2704     Co2737   2.104       .  S
N2705      N3699   1.314   1_545  A
N2705      N2741   1.327       .  A
N2705     Co3678   2.072   1_545  S
N2706      C2735   1.367       .  A
N2706      N2716   1.334       .  A
H2707      C2732   1.082       .  S
N2708      N3677   1.323       .  A
N2708      N3705   1.316       .  A
N2709      N2727   1.319       .  A
N2709      N2714   1.330       .  A
C2710      N2714   1.348       .  A
C2710      C2738   1.466       .  S
C2710      C2802   1.471       .  S
N2711      C2726   1.343       .  A
N2711     Co2733   2.105       .  S
C2712      N2740   1.342       .  A
C2712      C2715   1.459       .  S
C2712      H2746   1.081       .  S
C2715      N2736   1.346       .  A
C2715      C2816   1.435       .  S
N2716      N2722   1.311       .  A
N2717      C2743   1.348       .  A
N2717      N2719   1.317       .  A
N2717     Co2733   2.098       .  S
N2718      C2732   1.339       .  A
N2719      N2747   1.317       .  A
N2719     Co2737   2.040       .  S
H2720      C2743   1.082       .  S
H2721      C2738   1.078       .  S
N2723      C3675   1.344       .  A
N2723      N3681   1.314       .  A
N2723     Co2737   2.084       .  S
N2724      N2736   1.323       .  A
N2724      N2740   1.328       .  A
N2724     Co2733   2.099       .  S
C2725      N2729   1.334       .  A
C2725      C2739   1.472       .  S
C2725      C2822   1.428       .  S
C2726      C2745   1.459       .  S
C2726      H2730   1.082       .  S
N2727      C2738   1.354       .  A
N2727     Co2737   2.120       .  S
N2729      N3684   1.316   1_545  A
C2731      N2747   1.334       .  A
C2731      C2743   1.468       .  S
C2731      C2820   1.429       .  S
Co2733    Cl2744   2.446       .  S
N2734      C2745   1.350       .  A
C2735      C2803   1.445       .  S
Co2737    Cl2744   2.447       .  S
C2745      C2829   1.444       .  S
C2748      N2766   1.355       .  A
C2748      C2785   1.454       .  S
C2748      C2862   1.447       .  S
N2749      N2766   1.329       .  A
N2749      N2771   1.324       .  A
N2749     Co2786   2.120       .  S
C2750      N2775   1.350       .  A
C2750      C2788   1.454       .  S
C2750      H2795   1.075       .  S
H2751      C2792   1.082       .  S
C2752      N2776   1.331       .  A
C2752      C2756   1.440       .  S
C2752      H2781   1.082       .  S
Co2753     N2771   2.083       .  S
Co2753     N2761   2.096       .  S
Co2753     N2793   2.037       .  S
Co2753     N2769   2.101       .  S
Co2753    Cl2797   2.438       .  S
N2754      C2792   1.340       .  A
N2754      N2761   1.315       .  A
N2754     Co2755   2.058       .  S
Co2755     N2758   2.137       .  S
Co2755     N2775   2.108       .  S
Co2755     N2762   2.018       .  S
Co2755    Cl2797   2.431       .  S
C2756      N2794   1.359       .  A
C2756      C2812   1.439       .  S
N2757      N2764   1.322       .  A
N2757      N2787   1.327       .  A
N2757     Co2790   2.099       .  S
N2758      N2776   1.323       .  A
N2758      N2794   1.332       .  A
N2759      C2788   1.356       .  A
N2759      N2769   1.333       .  A
H2760      C2785   1.082       .  S
N2761      N2782   1.327       .  A
N2762      N2780   1.312       .  A
N2762      N2767   1.305       .  A
C2763      N2767   1.319       .  A
C2763      C2791   1.492       .  S
C2763      C2814   1.432       .  S
N2764      C2779   1.340       .  A
N2764     Co2786   2.078       .  S
C2765      N2793   1.328       .  A
C2765      C2768   1.435       .  S
C2765      H2799   1.082       .  S
C2768      N2789   1.351       .  A
C2768      C2809   1.417       .  S
N2769      N2775   1.315       .  A
N2770      C2796   1.342       .  A
N2770      N2772   1.326       .  A
N2770     Co2786   2.105       .  S
N2771      C2785   1.339       .  A
N2772      N2800   1.326       .  A
N2772     Co2790   2.091       .  S
H2773      C2796   1.082       .  S
H2774      C2791   1.081       .  S
N2776     Co2790   2.048       .  S
N2777      N2789   1.326       .  A
N2777      N2793   1.316       .  A
N2777     Co2786   2.081       .  S
C2778      N2782   1.351       .  A
C2778      C2792   1.454       .  S
C2778      C2808   1.440       .  S
C2779      C2798   1.455       .  S
C2779      H2783   1.082       .  S
N2780      C2791   1.359       .  A
N2780     Co2790   2.125       .  S
C2784      N2800   1.349       .  A
C2784      C2796   1.458       .  S
C2784      C2806   1.440       .  S
Co2786    Cl2797   2.449       .  S
N2787      C2798   1.349       .  A
C2788      C2801   1.471       .  S
Co2790    Cl2797   2.466       .  S
C2798      C2863   1.439       .  S
C2801      C2802   1.227       .  T
C2803      C3780   1.216       .  T
C2804      C3779   1.216   1_545  T
C2805      C2806   1.208       .  T
C2807      C2808   1.208       .  T
C2809      C2810   1.196       .  T
C2811      C2812   1.208       .  T
C2813      C2814   1.214       .  T
C2815      C2816   1.205       .  T
C2817      C2818   1.212       .  T
C2819      C2820   1.203       .  T
C2821      C2822   1.203       .  T
C2823      C2824   1.215       .  T
C2825      C2826   1.203       .  T
C2827      C2828   1.205       .  T
C2829      C2830   1.210       .  T
C2831      C2832   1.210       .  T
C2833      C2834   1.207       .  T
C2835      C2836   1.213       .  T
C2837      C2838   1.196       .  T
C2839      C2840   1.210       .  T
C2841      C2842   1.213       .  T
C2843      C2844   1.221       .  T
C2845      C2846   1.218       .  T
C2846      C3509   1.458   1_545  S
C2847      C2848   1.204       .  T
C2849      C2850   1.201       .  T
C2851      C2852   1.202       .  T
C2853      C2854   1.204       .  T
C2855      C2856   1.216       .  T
C2857      C2858   1.205       .  T
C2859      C2860   1.202       .  T
C2861      C2862   1.212       .  T
C2863      C2864   1.208       .  T
C2865      C2866   1.208       .  T
C2867      C2868   1.208       .  T
C2869      C2870   1.199       .  T
C2871      C2872   1.212       .  T
C2873      C3850   1.211   1_545  T
C2874      C3849   1.211       .  T
C2875      C2876   1.216       .  T
C2877      C2878   1.219       .  T
C2879      C2880   1.207       .  T
C2881      C2882   1.209       .  T
C2883      C2884   1.211       .  T
C2885      C2886   1.199       .  T
C2887      C2888   1.220   1_554  T
C2889      C2890   1.201       .  T
C2891      C2892   1.215       .  T
C2893      C2894   1.202       .  T
C2895      C2896   1.205       .  T
C2897      C2898   1.215       .  T
C2899      C2900   1.209       .  T
C2901      C2902   1.198       .  T
C2903      C2904   1.201       .  T
C2905      C2906   1.201       .  T
C2907      C2908   1.201       .  T
C2909      C2910   1.220       .  T
C2911      C2912   1.221       .  T
C2913      C2914   1.209       .  T
C2915      C2916   1.206       .  T
C2917      C2918   1.217       .  T
C2919      C2920   1.209       .  T
C2921      C2922   1.210       .  T
C2923      C2924   1.207       .  T
C2925      C2926   1.211       .  T
C2927      C3085   1.451       .  S
C2927      C2928   1.214   1_565  T
C2929      N2947   1.350       .  A
C2929      C2966   1.458       .  S
C2929      C3894   1.454       .  S
N2930      N2947   1.329       .  A
N2930      N2952   1.319       .  A
N2930     Co2967   2.096       .  S
C2931      N2956   1.343       .  A
C2931      C2969   1.462       .  S
C2931      H2976   1.082       .  S
H2932      C2973   1.081       .  S
C2933      N2957   1.345       .  A
C2933      C2937   1.463       .  S
C2933      H2962   1.081       .  S
Co2934     N2952   2.090       .  S
Co2934     N2942   2.076       .  S
Co2934     N2974   2.091       .  S
Co2934     N2950   2.079       .  S
Co2934    Cl2978   2.464       .  S
N2935      C2973   1.344       .  A
N2935      N2942   1.317       .  A
N2935     Co2936   2.080       .  S
Co2936     N2939   2.096       .  S
Co2936     N2956   2.105       .  S
Co2936     N2943   2.081       .  S
Co2936    Cl2978   2.437       .  S
C2937      N2975   1.346       .  A
C2937      C3896   1.441       .  S
N2938      N2945   1.314       .  A
N2938      N2968   1.332       .  A
N2938     Co2971   2.115       .  S
N2939      N2957   1.327       .  A
N2939      N2975   1.324       .  A
N2940      C2969   1.345       .  A
N2940      N2950   1.323       .  A
H2941      C2966   1.079       .  S
N2942      N2963   1.323       .  A
N2943      N2961   1.321       .  A
N2943      N2948   1.325       .  A
C2944      N2948   1.348       .  A
C2944      C2972   1.458       .  S
C2944      C3890   1.442       .  S
N2945      C2960   1.328       .  A
N2945     Co2967   2.036       .  S
C2946      N2974   1.345       .  A
C2946      H2980   1.081       .  S
C2949      N2970   1.346       .  A
C2949      C3898   1.443       .  S
N2950      N2956   1.324       .  A
N2951      C2977   1.348   1_545  A
N2952      C2966   1.345       .  A
N2953     Co2971   2.076       .  S
H2954      C2977   1.081       .  S
H2955      C2972   1.082       .  S
N2957     Co2971   2.109       .  S
N2958      N2974   1.316       .  A
N2958     Co2967   2.070       .  S
C2959      N2963   1.345       .  A
C2959      C2973   1.459       .  S
C2959      C3899   1.437       .  S
C2960      C2979   1.440       .  S
C2960      H2964   1.083       .  S
N2961      C2972   1.343       .  A
N2961     Co2971   2.091       .  S
C2965      N2981   1.345       .  A
C2965      C2977   1.467       .  S
C2965      C3901   1.444       .  S
Co2967    Cl2978   2.429       .  S
N2968      C2979   1.363       .  A
C2969      C3892   1.436       .  S
Co2971    Cl2978   2.467       .  S
C2979      C3904   1.445       .  S
C2982      N3000   1.348       .  A
C2982      C3019   1.459       .  S
C2982      C3902   1.445       .  S
N2983      N3005   1.318       .  A
N2983     Co3020   2.074       .  S
C2984      N3009   1.326       .  A
C2984      C3022   1.438       .  S
C2984      H3029   1.083       .  S
H2985      C3026   1.080       .  S
C2986      C2990   1.460       .  S
C2986      H3015   1.082       .  S
Co2987     N3005   2.096       .  S
Co2987     N2995   2.039       .  S
Co2987     N3027   2.090       .  S
Co2987     N3003   2.154       .  S
Co2987    Cl3031   2.435       .  S
N2988      N2995   1.319       .  A
N2988     Co2989   2.137       .  S
Co2989     N2992   2.089       .  S
Co2989     N3009   2.026       .  S
Co2989     N2996   2.077       .  S
Co2989    Cl3031   2.421       .  S
C2990      N3028   1.349       .  A
C2990      C3895   1.442       .  S
N2991      N2998   1.321       .  A
N2991     Co3024   2.078       .  S
N2992      N3010   1.324       .  A
N2993      C3022   1.366       .  A
N2993      N3003   1.334       .  A
H2994      C3019   1.081       .  S
N2995      N3016   1.315       .  A
N2996      N3014   1.316       .  A
N2996      N3001   1.324       .  A
C2997      N3001   1.344       .  A
C2997      C3025   1.459       .  S
C2997      C3900   1.437       .  S
N2998     Co3020   2.080       .  S
C2999      N3027   1.341       .  A
C2999      C3002   1.459       .  S
C2999      H3033   1.082       .  S
C3002      N3023   1.350       .  A
C3002      C3897   1.443       .  S
N3003      N3009   1.316       .  A
N3004      C3030   1.337       .  A
N3004      N3006   1.322       .  A
N3004     Co3020   2.072       .  S
N3006      N3034   1.325       .  A
N3006     Co3024   2.090       .  S
H3007      C3030   1.082       .  S
H3008      C3025   1.081       .  S
N3010     Co3024   2.102       .  S
N3011      N3023   1.326       .  A
N3011      N3027   1.322       .  A
N3011     Co3020   2.096       .  S
C3012      C3026   1.479       .  S
C3013      C3032   1.452       .  S
C3013      H3017   1.082       .  S
N3014      C3025   1.345       .  A
N3014     Co3024   2.075       .  S
C3018      N3034   1.348       .  A
C3018      C3030   1.449       .  S
C3018      C3884   1.429       .  S
Co3020    Cl3031   2.439       .  S
N3021      C3032   1.347       .  A
C3022      C3885   1.455       .  S
Co3024    Cl3031   2.448       .  S
C3032      C3881   1.427       .  S
C3035      N3053   1.332       .  A
C3035      C3072   1.475       .  S
C3035      C3888   1.457       .  S
N3036     Co3073   2.051   1_455  S
C3037      N3062   1.344       .  A
C3037      C3075   1.460       .  S
H3038      C3079   1.082       .  S
C3039      N3063   1.331       .  A
C3039      C3043   1.438       .  S
C3039      H3068   1.082       .  S
Co3040     N3058   2.105       .  S
Co3040     N3048   2.127       .  S
Co3040     N3080   2.040       .  S
Co3040     N3056   2.068       .  S
N3041      C3079   1.340       .  A
Co3042     N3049   2.097       .  S
Co3042    Cl3084   2.438       .  S
C3043      N3081   1.351       .  A
C3043      C3878   1.421       .  S
N3044      N3051   1.318       .  A
N3044      N3074   1.327       .  A
N3044     Co3077   2.090       .  S
N3045      N3063   1.316       .  A
N3045      N3081   1.326       .  A
N3046      C3075   1.343       .  A
N3046      N3056   1.322       .  A
H3047      C3072   1.082       .  S
N3049      N3067   1.325       .  A
N3049      N3054   1.324       .  A
C3050      N3054   1.348       .  A
C3050      C3078   1.453       .  S
C3050      C3870   1.429       .  S
N3051      C3066   1.347       .  A
N3051     Co3073   2.087       .  S
C3052      N3080   1.329       .  A
C3052      C3055   1.441       .  S
C3052      H3086   1.082       .  S
C3055      C3879   1.426       .  S
N3056      N3062   1.317       .  A
N3057      C3083   1.340       .  A
N3057      N3059   1.313       .  A
N3057     Co3073   2.069       .  S
N3058      C3072   1.357       .  A
N3059      N3087   1.328       .  A
N3059     Co3077   2.080       .  S
H3060      C3083   1.082       .  S
H3061      C3078   1.082       .  S
N3064      N3076   1.327   1_655  A
N3064     Co3073   2.123       .  S
C3065      N3069   1.357       .  A
C3065      C3079   1.454       .  S
C3065      C3873   1.451       .  S
C3066      C3085   1.454       .  S
C3066      H3070   1.080       .  S
N3067      C3078   1.337       .  A
N3067     Co3077   2.081       .  S
C3071      N3087   1.351       .  A
C3071      C3083   1.453       .  S
C3071      C3876   1.442       .  S
Co3073    Cl3084   2.420       .  S
N3074      C3085   1.349       .  A
C3075      C3871   1.434       .  S
Co3077    Cl3084   2.451       .  S
C3088      N3106   1.331       .  A
C3088      C3125   1.476       .  S
C3088      C3886   1.455       .  S
N3089      N3106   1.316       .  A
N3089      N3111   1.318       .  A
N3089     Co3126   2.046       .  S
C3090      N3115   1.341       .  A
C3090      C3128   1.457       .  S
C3090      H3135   1.082       .  S
H3091      C3132   1.082       .  S
C3092      N3116   1.331       .  A
C3092      C3096   1.438       .  S
C3092      H3121   1.082       .  S
Co3093     N3111   2.108       .  S
Co3093     N3101   2.120       .  S
Co3093     N3133   2.044       .  S
Co3093     N3109   2.065       .  S
Co3093    Cl3137   2.452       .  S
N3094      C3132   1.341       .  A
N3094      N3101   1.328       .  A
N3094     Co3095   2.106       .  S
Co3095     N3098   2.081       .  S
Co3095     N3115   2.072       .  S
Co3095     N3102   2.116       .  S
Co3095    Cl3137   2.449       .  S
C3096      N3134   1.351       .  A
C3096      C3877   1.421       .  S
N3097      N3104   1.319       .  A
N3097      N3127   1.329       .  A
N3097     Co3130   2.099       .  S
N3098      N3116   1.316       .  A
N3098      N3134   1.326       .  A
N3099      C3128   1.341       .  A
N3099      N3109   1.321       .  A
H3100      C3125   1.082       .  S
N3101      N3122   1.330       .  A
N3102      N3120   1.325       .  A
N3102      N3107   1.329       .  A
C3103      N3107   1.353       .  A
C3103      C3131   1.460       .  S
C3103      C3867   1.452       .  S
N3104      C3119   1.346       .  A
N3104     Co3126   2.090       .  S
C3105      N3133   1.329       .  A
C3105      C3108   1.441       .  S
C3105      H3139   1.082       .  S
C3108      N3129   1.355       .  A
C3108      C3880   1.426       .  S
N3109      N3115   1.318       .  A
N3110      C3136   1.339       .  A
N3110      N3112   1.315       .  A
N3110     Co3126   2.065       .  S
N3111      C3125   1.357       .  A
N3112      N3140   1.328       .  A
N3112     Co3130   2.084       .  S
H3113      C3136   1.082       .  S
H3114      C3131   1.081       .  S
N3116     Co3130   2.043       .  S
N3117      N3129   1.327       .  A
N3117      N3133   1.322       .  A
N3117     Co3126   2.120       .  S
C3118      N3122   1.356       .  A
C3118      C3132   1.455       .  S
C3118      C3874   1.451       .  S
C3119      C3138   1.457       .  S
C3119      H3123   1.080       .  S
N3120      C3131   1.343       .  A
N3120     Co3130   2.098       .  S
C3124      N3140   1.352       .  A
C3124      C3136   1.452       .  S
C3124      C3875   1.441       .  S
Co3126    Cl3137   2.423       .  S
N3127      C3138   1.351       .  A
C3128      C3866   1.427       .  S
Co3130    Cl3137   2.450       .  S
C3138      C3893   1.455       .  S
C3141      N3159   1.348       .  A
C3141      C3178   1.464       .  S
C3141      C3868   1.452       .  S
N3142      N3159   1.327       .  A
N3142      N3164   1.321       .  A
N3142     Co3179   2.082       .  S
C3143      N3168   1.323       .  A
C3143      C3181   1.432       .  S
C3143      H3188   1.084       .  S
H3144      C3185   1.081       .  S
C3145      N3169   1.342       .  A
C3145      C3149   1.457       .  S
C3145      H3174   1.082       .  S
Co3146     N3164   2.111       .  S
Co3146     N3154   2.044       .  S
Co3146     N3186   2.098       .  S
Co3146     N3162   2.136       .  S
Co3146    Cl3190   2.471       .  S
N3147      C3185   1.352       .  A
N3147      N3154   1.324       .  A
N3147     Co3148   2.146       .  S
Co3148     N3151   2.071       .  S
Co3148     N3168   2.025       .  S
Co3148     N3155   2.103       .  S
Co3148    Cl3190   2.416       .  S
C3149      C3856   1.439       .  S
N3150      N3180   1.319       .  A
N3150     Co3183   2.068       .  S
N3151      N3187   1.325   1_655  A
N3152      C3181   1.370       .  A
N3152      N3162   1.335       .  A
H3153      C3178   1.081       .  S
N3154      N3175   1.319       .  A
C3156      N3160   1.350       .  A
C3156      C3184   1.461       .  S
C3156      C3863   1.460       .  S
N3157      C3172   1.342       .  A
N3157     Co3179   2.101       .  S
C3158      N3186   1.343       .  A
C3158      C3161   1.459       .  S
C3158      H3192   1.081       .  S
C3161      N3182   1.349       .  A
C3161      C3858   1.442       .  S
N3162      N3168   1.311       .  A
N3163      C3189   1.344       .  A
N3163     Co3179   2.084       .  S
N3164      C3178   1.348       .  A
N3165      N3193   1.317       .  A
N3165     Co3183   2.048       .  S
H3166      C3189   1.082       .  S
H3167      C3184   1.079       .  S
N3169     Co3183   2.081       .  S
N3170      N3182   1.325       .  A
N3170      N3186   1.327       .  A
N3170     Co3179   2.104       .  S
C3171      N3175   1.338       .  A
C3171      C3185   1.475       .  S
C3171      C3859   1.444       .  S
C3172      H3176   1.082       .  S
N3173      C3184   1.349       .  A
N3173     Co3183   2.089       .  S
C3177      N3193   1.335       .  A
C3177      C3861   1.423       .  S
Co3179    Cl3190   2.444       .  S
N3180      C3191   1.342       .  A
C3181      C3853   1.449   1_554  S
C3191      C3865   1.427       .  S
C3194      N3212   1.346       .  A
C3194      C3231   1.453       .  S
C3194      C3869   1.429       .  S
N3195      N3212   1.323       .  A
N3195      N3217   1.320       .  A
N3195     Co3232   2.072       .  S
C3196      N3221   1.323       .  A
C3196      C3234   1.427       .  S
C3196      H3241   1.085       .  S
H3197      C3238   1.081       .  S
C3198      C3202   1.457       .  S
C3198      H3227   1.081       .  S
Co3199     N3217   2.080       .  S
Co3199     N3207   2.045       .  S
Co3199     N3239   2.093       .  S
Co3199     N3215   2.108       .  S
Co3199    Cl3243   2.458       .  S
N3200      C3238   1.352       .  A
Co3201     N3221   2.028       .  S
Co3201     N3208   2.079       .  S
Co3201    Cl3243   2.423       .  S
C3202      N3240   1.348       .  A
C3202      C3855   1.439       .  S
N3203      N3210   1.325       .  A
N3203      N3233   1.320       .  A
N3203     Co3236   2.069       .  S
N3204      N3240   1.325       .  A
N3205      C3234   1.365       .  A
N3205      N3215   1.329       .  A
H3206      C3231   1.082       .  S
N3208      N3226   1.316       .  A
N3208      N3213   1.326       .  A
C3209      N3213   1.339       .  A
C3209      C3237   1.457       .  S
C3209      C3852   1.454       .  S
N3210      C3225   1.344       .  A
N3210     Co3232   2.114       .  S
C3211      N3239   1.341       .  A
C3211      C3214   1.455       .  S
C3211      H3245   1.082       .  S
C3214      N3235   1.351       .  A
C3214      C3857   1.442       .  S
N3215      N3221   1.308       .  A
N3216      C3242   1.345       .  A
N3216      N3218   1.317       .  A
N3216     Co3232   2.077       .  S
N3217      C3231   1.340       .  A
N3218      N3246   1.317       .  A
N3218     Co3236   2.050       .  S
H3219      C3242   1.082       .  S
H3220      C3237   1.076       .  S
N3222     Co3236   2.085       .  S
N3223      N3235   1.327       .  A
N3223      N3239   1.327       .  A
N3223     Co3232   2.112       .  S
C3224      N3228   1.338       .  A
C3224      C3238   1.474       .  S
C3224      C3860   1.444       .  S
C3225      C3244   1.464       .  S
C3225      H3229   1.081       .  S
N3226      C3237   1.350       .  A
N3226     Co3236   2.090       .  S
C3230      N3246   1.335       .  A
C3230      C3242   1.461       .  S
C3230      C3862   1.422       .  S
Co3232    Cl3243   2.437       .  S
N3233      C3244   1.343       .  A
C3234      C3850   1.436       .  S
Co3236    Cl3243   2.443       .  S
C3244      C3872   1.434       .  S
C3247      N3265   1.350       .  A
C3247      C3864   1.461       .  S
N3248      N3265   1.329       .  A
N3248      N3270   1.317       .  A
N3248     Co3285   2.099       .  S
C3249      N3274   1.344       .  A
C3249      C3287   1.461       .  S
C3249      H3294   1.082       .  S
H3250      C3291   1.082       .  S
C3251      N3275   1.342       .  A
C3251      C3255   1.457       .  S
C3251      H3280   1.081       .  S
Co3252     N3270   2.096       .  S
Co3252     N3260   2.048       .  S
Co3252     N3292   2.083       .  S
Co3252     N3268   2.084       .  S
Co3252    Cl3296   2.451       .  S
N3253      C3291   1.345       .  A
N3253      N3260   1.318       .  A
N3253     Co3254   2.087       .  S
Co3254     N3257   2.104       .  S
Co3254     N3274   2.105       .  S
Co3254     N3261   2.087       .  S
Co3254    Cl3296   2.446       .  S
C3255      N3293   1.349       .  A
C3255      C3843   1.439       .  S
N3256      N3263   1.311       .  A
N3256      N3286   1.333       .  A
N3256     Co3289   2.124       .  S
N3257      N3275   1.326       .  A
N3257      N3293   1.325       .  A
H3259      C3284   1.079       .  S
N3260      N3281   1.317       .  A
N3261      N3279   1.321       .  A
N3261      N3266   1.327       .  A
C3262      N3266   1.349       .  A
C3262      C3290   1.459       .  S
C3262      C3837   1.447       .  S
N3263      C3278   1.323       .  A
N3263     Co3285   2.028       .  S
C3264      C3267   1.458       .  S
C3264      H3298   1.081       .  S
C3267      C3841   1.440       .  S
N3268      N3274   1.325       .  A
N3269      C3295   1.352       .  A
N3269      N3271   1.324       .  A
N3269     Co3285   2.143       .  S
N3271      N3299   1.319       .  A
N3271     Co3289   2.047       .  S
H3272      C3295   1.082       .  S
H3273      C3290   1.081       .  S
N3275     Co3289   2.092       .  S
N3276      N3288   1.325       .  A
N3276      N3292   1.316       .  A
N3276     Co3285   2.072       .  S
C3277      N3281   1.335       .  A
C3277      C3291   1.462       .  S
C3278      C3297   1.434       .  S
C3278      H3282   1.084       .  S
N3279      C3290   1.345       .  A
N3279     Co3289   2.098       .  S
C3283      N3299   1.338       .  A
C3283      C3295   1.475       .  S
C3283      C3847   1.444       .  S
Co3285    Cl3296   2.421       .  S
N3286      C3297   1.368       .  A
Co3289    Cl3296   2.469       .  S
C3297      C3851   1.444   1_556  S
C3300      N3318   1.339       .  A
C3300      C3337   1.458       .  S
C3300      C3854   1.459       .  S
N3301      N3318   1.326       .  A
N3301      N3323   1.317       .  A
N3301     Co3338   2.083       .  S
C3302      N3327   1.343       .  A
C3302      C3340   1.461       .  S
C3302      H3347   1.081       .  S
H3303      C3344   1.081       .  S
C3304      N3328   1.341       .  A
C3304      C3308   1.456       .  S
C3304      H3333   1.081       .  S
Co3305     N3323   2.098       .  S
Co3305     N3313   2.046       .  S
Co3305     N3345   2.089       .  S
Co3305     N3321   2.079       .  S
Co3305    Cl3349   2.440       .  S
N3306      C3344   1.346       .  A
N3306      N3313   1.317       .  A
N3306     Co3307   2.081       .  S
Co3307     N3310   2.106       .  S
Co3307     N3327   2.108       .  S
Co3307     N3314   2.072       .  S
Co3307    Cl3349   2.442       .  S
C3308      N3346   1.350       .  A
C3308      C3844   1.439       .  S
N3309      N3316   1.308       .  A
N3309      N3339   1.330       .  A
N3309     Co3342   2.110       .  S
N3310      N3328   1.326       .  A
N3310      N3346   1.326       .  A
N3311      C3340   1.346       .  A
N3311      N3321   1.322       .  A
H3312      C3337   1.076       .  S
N3313      N3334   1.317       .  A
N3314      N3332   1.320       .  A
N3314      N3319   1.323       .  A
C3315      N3319   1.346       .  A
C3315      C3343   1.454       .  S
C3315      C3835   1.430       .  S
N3316      C3331   1.322       .  A
N3316     Co3338   2.025       .  S
C3317      N3345   1.343       .  A
C3317      H3351   1.081       .  S
C3320      N3341   1.348       .  A
C3320      C3842   1.440       .  S
N3321      N3327   1.325       .  A
N3322      N3324   1.324       .  A
N3322     Co3338   2.140       .  S
N3323      C3337   1.352       .  A
N3324     Co3342   2.049       .  S
H3325      C3348   1.081       .  S
H3326      C3343   1.082       .  S
N3328     Co3342   2.091       .  S
N3329      N3345   1.315       .  A
N3329     Co3338   2.063       .  S
C3330      N3334   1.334       .  A
C3330      C3344   1.462       .  S
C3330      C3845   1.423       .  S
C3331      C3350   1.427       .  S
C3331      H3335   1.085       .  S
N3332      C3343   1.340       .  A
N3332     Co3342   2.080       .  S
C3336      N3352   1.338       .  A
C3336      C3348   1.475       .  S
C3336      C3848   1.445       .  S
Co3338    Cl3349   2.421       .  S
N3339      C3350   1.367       .  A
C3340      C3833   1.435       .  S
Co3342    Cl3349   2.463       .  S
C3350      C3849   1.435   1_556  S
C3353      N3371   1.353       .  A
C3353      C3390   1.449       .  S
C3353      C3891   1.436       .  S
N3354      N3371   1.328       .  A
N3354      N3376   1.323       .  A
N3354     Co3391   2.108       .  S
C3355      N3380   1.344       .  A
C3355      C3393   1.452       .  S
C3355      H3400   1.077       .  S
H3356      C3397   1.082       .  S
C3357      H3386   1.082       .  S
Co3358     N3376   2.074       .  S
Co3358     N3366   2.078       .  S
Co3358     N3398   2.046       .  S
Co3358     N3374   2.089       .  S
Co3358    Cl3402   2.442       .  S
N3359      N3366   1.314       .  A
N3359     Co3360   2.051       .  S
Co3360     N3363   2.126       .  S
Co3360     N3380   2.093       .  S
Co3360     N3367   2.029       .  S
Co3360    Cl3402   2.424       .  S
C3361      C3828   1.428       .  S
N3362      N3369   1.321       .  A
N3362     Co3395   2.085       .  S
N3363      N3381   1.321       .  A
N3364      C3393   1.352       .  A
N3364      N3374   1.329       .  A
H3365      C3390   1.081       .  S
N3366      N3387   1.324       .  A
N3367      N3385   1.314       .  A
N3367      N3372   1.309       .  A
C3368      C3396   1.489       .  S
N3369      C3384   1.346       .  A
N3369     Co3391   2.092       .  S
C3370      N3398   1.333       .  A
C3370      C3373   1.440       .  S
C3370      H3404   1.081       .  S
C3373      N3394   1.355       .  A
C3373      C3829   1.431       .  S
N3374      N3380   1.316       .  A
N3375      C3401   1.338       .  A
N3375      N3377   1.327       .  A
N3375     Co3391   2.094       .  S
N3376      C3390   1.336       .  A
N3377     Co3395   2.097       .  S
H3378      C3401   1.082       .  S
H3379      C3396   1.081       .  S
N3381     Co3395   2.038       .  S
N3382      N3394   1.329       .  A
N3382      N3398   1.317       .  A
N3382     Co3391   2.100       .  S
C3383      C3397   1.451       .  S
C3383      C3825   1.428       .  S
C3384      H3388   1.082       .  S
N3385     Co3395   2.126       .  S
C3389      N3405   1.350       .  A
C3389      C3824   1.434       .  S
Co3391    Cl3402   2.449       .  S
N3392      C3403   1.344       .  A
C3393      C3832   1.453       .  S
Co3395    Cl3402   2.464       .  S
C3403      C3889   1.442       .  S
C3406      N3424   1.347       .  A
C3406      C3443   1.453       .  S
C3406      C3882   1.427       .  S
N3407      N3424   1.324       .  A
N3407      N3429   1.323       .  A
N3407     Co3444   2.091       .  S
C3408      N3433   1.344       .  A
C3408      C3446   1.445       .  S
C3408      H3453   1.074       .  S
H3409      C3450   1.082       .  S
C3410      N3434   1.331       .  A
C3410      C3414   1.440       .  S
C3410      H3439   1.082       .  S
Co3411     N3429   2.081       .  S
Co3411     N3419   2.095       .  S
Co3411     N3451   2.037       .  S
Co3411     N3427   2.097       .  S
Co3411    Cl3455   2.425       .  S
N3412      C3450   1.337       .  A
N3412      N3419   1.314       .  A
N3412     Co3413   2.043       .  S
Co3413     N3416   2.129       .  S
Co3413     N3433   2.087       .  S
Co3413     N3420   2.035       .  S
Co3413    Cl3455   2.425       .  S
C3414      N3452   1.357       .  A
C3414      C3830   1.431       .  S
N3415      N3422   1.319       .  A
N3415      N3445   1.322       .  A
N3415     Co3448   2.074       .  S
N3416      N3434   1.321       .  A
N3416      N3452   1.329       .  A
N3417      C3446   1.354       .  A
N3417      N3427   1.330       .  A
H3418      C3443   1.081       .  S
N3419      N3440   1.326       .  A
N3420      N3438   1.310       .  A
N3420      N3425   1.305       .  A
C3421      N3425   1.318       .  A
C3421      C3449   1.487       .  S
C3421      C3818   1.429       .  S
N3422      C3437   1.341       .  A
N3422     Co3444   2.077       .  S
C3423      N3451   1.330       .  A
C3423      C3426   1.435       .  S
C3423      H3457   1.082       .  S
C3426      N3447   1.356       .  A
C3426      C3827   1.427       .  S
N3427      N3433   1.314       .  A
N3428      C3454   1.337       .  A
N3428      N3430   1.326       .  A
N3428     Co3444   2.086       .  S
N3429      C3443   1.338       .  A
N3430      N3458   1.324       .  A
N3430     Co3448   2.093       .  S
H3431      C3454   1.082       .  S
H3432      C3449   1.081       .  S
N3434     Co3448   2.038       .  S
N3435      N3447   1.329       .  A
N3435      N3451   1.315       .  A
N3435     Co3444   2.095       .  S
C3436      N3440   1.351       .  A
C3436      C3450   1.450       .  S
C3436      C3823   1.434       .  S
C3437      C3456   1.455       .  S
C3437      H3441   1.082       .  S
N3438      C3449   1.355       .  A
N3438     Co3448   2.104       .  S
C3442      N3458   1.348       .  A
C3442      C3454   1.451       .  S
C3442      C3826   1.429       .  S
Co3444    Cl3455   2.445       .  S
N3445      C3456   1.344       .  A
C3446      C3819   1.462       .  S
Co3448    Cl3455   2.461       .  S
C3456      C3883   1.429       .  S
C3459      N3477   1.320       .  A
C3459      C3496   1.492       .  S
C3459      C3820   1.446       .  S
N3460      N3477   1.308       .  A
N3460      N3482   1.312       .  A
N3460     Co3497   2.032       .  S
C3461      N3486   1.341       .  A
C3461      C3499   1.454       .  S
C3461      H3506   1.082       .  S
H3462      C3503   1.082       .  S
C3463      N3487   1.330       .  A
C3463      C3467   1.436       .  S
C3463      H3492   1.082       .  S
Co3464     N3482   2.131       .  S
Co3464     N3504   2.045       .  S
Co3464     N3480   2.102       .  S
Co3464    Cl3508   2.469       .  S
N3465      C3503   1.343       .  A
N3465      N3472   1.328       .  A
N3465     Co3466   2.111       .  S
Co3466     N3469   2.082       .  S
C3467      C3814   1.419       .  S
N3468      N3498   1.330       .  A
N3468     Co3501   2.087       .  S
N3469      N3505   1.326       .  A
N3470      C3499   1.351       .  A
N3470      N3480   1.328       .  A
H3471      C3496   1.081       .  S
N3472      N3493   1.328       .  A
N3473      N3478   1.330   1_655  A
C3474      C3502   1.449       .  S
C3474      C3807   1.443       .  S
N3475      C3490   1.348       .  A
N3475     Co3497   2.094       .  S
C3476      N3504   1.332       .  A
C3476      C3479   1.443       .  S
C3476      H3510   1.082       .  S
C3479      N3500   1.359       .  A
C3479      C3815   1.442       .  S
N3480      N3486   1.321       .  A
N3481      C3507   1.340   1_655  A
N3481     Co3497   2.063       .  S
N3482      C3496   1.361       .  A
N3483      N3511   1.327       .  A
N3483     Co3501   2.088       .  S
H3484      C3507   1.082   1_655  S
H3485      C3502   1.082       .  S
N3488      N3500   1.331       .  A
N3488      N3504   1.324       .  A
N3488     Co3497   2.143       .  S
C3489      N3493   1.352       .  A
C3489      C3503   1.458       .  S
C3489      C3811   1.447       .  S
C3490      H3494   1.074       .  S
N3491      C3502   1.337       .  A
N3491     Co3501   2.074       .  S
C3495      N3511   1.350       .  A
C3495      C3809   1.438       .  S
Co3497    Cl3508   2.421       .  S
N3498      C3509   1.351       .  A
C3499      C3806   1.444       .  S
C3512      N3530   1.319       .  A
C3512      C3549   1.482       .  S
C3512      C3817   1.440       .  S
N3513      N3530   1.310       .  A
N3513      N3535   1.312       .  A
N3513     Co3550   2.055       .  S
C3514      N3539   1.340       .  A
C3514      C3552   1.455       .  S
C3514      H3559   1.082       .  S
H3515      C3556   1.082       .  S
C3516      N3540   1.330       .  A
C3516      C3520   1.437       .  S
C3516      H3545   1.082       .  S
Co3517     N3535   2.110       .  S
Co3517     N3525   2.107       .  S
Co3517     N3557   2.032       .  S
Co3517     N3533   2.086       .  S
Co3517    Cl3561   2.463       .  S
N3518      C3556   1.342       .  A
N3518      N3525   1.327       .  A
N3518     Co3519   2.106       .  S
Co3519     N3522   2.081       .  S
Co3519     N3539   2.074       .  S
Co3519     N3526   2.107       .  S
Co3519    Cl3561   2.439       .  S
C3520      N3558   1.351       .  A
C3520      C3813   1.419       .  S
N3521      N3528   1.313       .  A
N3521      N3551   1.329       .  A
N3521     Co3554   2.084       .  S
N3522      N3540   1.317       .  A
N3522      N3558   1.326       .  A
N3523      C3552   1.347       .  A
N3523      N3533   1.325       .  A
H3524      C3549   1.082       .  S
N3525      N3546   1.328       .  A
N3526      N3544   1.323       .  A
N3526      N3531   1.326       .  A
C3527      N3531   1.353       .  A
C3527      C3555   1.449       .  S
C3527      C3801   1.432       .  S
N3528      C3543   1.344       .  A
N3528     Co3550   2.087       .  S
C3529      N3557   1.332       .  A
C3529      C3532   1.442       .  S
C3529      H3563   1.082       .  S
C3532      N3553   1.360       .  A
C3532      C3816   1.442       .  S
N3533      N3539   1.319       .  A
N3534      C3560   1.340       .  A
N3534      N3536   1.316       .  A
N3534     Co3550   2.064       .  S
N3535      C3549   1.353       .  A
N3536      N3564   1.326       .  A
N3536     Co3554   2.092       .  S
H3537      C3560   1.082       .  S
H3538      C3555   1.082       .  S
N3540     Co3554   2.042       .  S
N3541      N3553   1.332       .  A
N3541      N3557   1.321       .  A
N3541     Co3550   2.153       .  S
C3542      N3546   1.352       .  A
C3542      C3556   1.458       .  S
C3542      C3812   1.447       .  S
C3543      C3562   1.451       .  S
C3543      H3547   1.077       .  S
N3544      C3555   1.335       .  A
N3544     Co3554   2.068       .  S
C3548      N3564   1.350       .  A
C3548      C3560   1.455       .  S
C3548      C3810   1.438       .  S
Co3550    Cl3561   2.408       .  S
N3551      C3562   1.352       .  A
C3552      C3803   1.435       .  S
Co3554    Cl3561   2.439       .  S
C3562      C3831   1.453       .  S
C3565      N3583   1.351       .  A
C3565      C3602   1.447       .  S
C3565      C3804   1.435       .  S
N3566      N3583   1.328       .  A
N3566      N3588   1.318       .  A
N3566     Co3603   2.087       .  S
C3567      N3592   1.326       .  A
C3567      C3605   1.426       .  S
C3567      H3612   1.084       .  S
H3568      C3609   1.081       .  S
C3569      N3593   1.342       .  A
C3569      C3573   1.457       .  S
C3569      H3598   1.081       .  S
Co3570     N3588   2.067       .  S
Co3570     N3578   2.030       .  S
Co3570     N3610   2.107       .  S
Co3570     N3586   2.108       .  S
Co3570    Cl3614   2.452       .  S
N3571      C3609   1.348       .  A
N3571      N3578   1.321       .  A
N3571     Co3572   2.131       .  S
Co3572     N3575   2.054   1_655  S
Co3572     N3592   2.035       .  S
Co3572     N3579   2.069   1_655  S
Co3572    Cl3614   2.421       .  S
C3573      N3611   1.346       .  A
C3573      C3791   1.435       .  S
N3574      N3604   1.321       .  A
N3574     Co3607   2.076       .  S
N3576      C3605   1.362       .  A
N3576      N3586   1.331       .  A
H3577      C3602   1.082       .  S
N3578      N3599   1.316       .  A
C3580      N3584   1.338       .  A
C3580      C3608   1.458       .  S
C3580      C3800   1.453       .  S
N3581     Co3603   2.111   1_455  S
C3582      N3610   1.343       .  A
C3582      C3585   1.460       .  S
C3582      H3616   1.082       .  S
C3585      N3606   1.350       .  A
C3585      C3794   1.446       .  S
N3586      N3592   1.309       .  A
N3587     Co3603   2.095       .  S
N3588      C3602   1.337       .  A
N3589      N3617   1.316       .  A
N3589     Co3607   2.040       .  S
H3591      C3608   1.076       .  S
N3593     Co3607   2.082       .  S
N3594      N3606   1.327       .  A
N3594      N3610   1.330       .  A
N3594     Co3603   2.116       .  S
C3595      N3599   1.335       .  A
C3595      C3609   1.472       .  S
C3595      C3795   1.429       .  S
C3596      C3615   1.461       .  S
N3597      C3608   1.350       .  A
N3597     Co3607   2.098       .  S
C3601      N3617   1.332       .  A
C3601      C3613   1.468       .  S
C3601      C3797   1.428       .  S
Co3603    Cl3614   2.440       .  S
N3604      C3615   1.343       .  A
C3605      C3789   1.446       .  S
C3615      C3802   1.432       .  S
C3618      N3636   1.349       .  A
C3618      C3655   1.453       .  S
C3618      C3836   1.430       .  S
N3619      N3636   1.324       .  A
N3619      N3641   1.324       .  A
N3619     Co3656   2.098       .  S
C3620      N3645   1.348       .  A
C3620      C3658   1.449       .  S
C3620      H3665   1.075       .  S
H3621      C3662   1.082       .  S
C3622      C3626   1.443       .  S
C3622      H3651   1.082       .  S
Co3623     N3641   2.075       .  S
Co3623     N3631   2.087       .  S
Co3623     N3663   2.041       .  S
Co3623     N3639   2.084       .  S
Co3623    Cl3667   2.445       .  S
N3624      C3662   1.340       .  A
N3624      N3631   1.315       .  A
N3624     Co3625   2.067       .  S
Co3625     N3628   2.132       .  S
Co3625     N3645   2.095       .  S
Co3625     N3632   2.033       .  S
Co3625    Cl3667   2.420       .  S
C3626      C3787   1.439       .  S
N3627      N3634   1.320       .  A
N3627     Co3660   2.087       .  S
N3628      N3646   1.323       .  A
N3628      N3664   1.330       .  A
N3629      C3658   1.349       .  A
N3629      N3639   1.328       .  A
H3630      C3655   1.082       .  S
N3631      N3652   1.327       .  A
N3632      N3650   1.313       .  A
N3632      N3637   1.307       .  A
C3633      C3661   1.485       .  S
N3634      C3649   1.340       .  A
N3634     Co3656   2.073       .  S
C3635      C3638   1.436   1_545  S
C3635      H3669   1.082       .  S
C3638      N3659   1.351       .  A
C3638      C3786   1.418       .  S
N3639      N3645   1.317       .  A
N3640      N3642   1.326       .  A
N3640     Co3656   2.097       .  S
N3641      C3655   1.337       .  A
N3642     Co3660   2.100       .  S
H3643      C3666   1.082       .  S
H3644      C3661   1.081       .  S
N3646     Co3660   2.050       .  S
N3647      N3663   1.316       .  A
N3647     Co3656   2.081       .  S
C3648      N3652   1.351       .  A
C3648      C3662   1.455       .  S
C3648      C3783   1.440       .  S
C3649      H3653   1.082       .  S
N3650     Co3660   2.111       .  S
C3654      N3670   1.351   1_565  A
C3654      C3781   1.440       .  S
Co3656    Cl3667   2.441       .  S
N3657      C3668   1.348       .  A
C3658      C3780   1.454       .  S
Co3660    Cl3667   2.465       .  S
C3668      C3834   1.435       .  S
C3671      N3689   1.354       .  A
C3671      C3708   1.449       .  S
C3671      C3808   1.443       .  S
N3672      N3689   1.330       .  A
N3672      N3694   1.320       .  A
N3672     Co3709   2.099       .  S
C3673      N3698   1.325       .  A
C3673      C3711   1.433       .  S
C3673      H3718   1.083       .  S
H3674      C3715   1.081       .  S
C3675      C3679   1.458       .  S
C3675      H3704   1.081       .  S
Co3676     N3694   2.077       .  S
Co3676     N3684   2.041       .  S
Co3676     N3716   2.096       .  S
Co3676     N3692   2.116       .  S
Co3676    Cl3720   2.458       .  S
N3677      C3715   1.349       .  A
Co3678     N3698   2.029       .  S
Co3678     N3685   2.094       .  S
Co3678    Cl3720   2.436       .  S
C3679      N3717   1.349       .  A
C3679      C3793   1.446       .  S
N3680      N3687   1.327       .  A
N3680      N3710   1.326       .  A
N3680     Co3713   2.104       .  S
N3681      N3717   1.327       .  A
N3682      C3711   1.367       .  A
N3682      N3692   1.334       .  A
H3683      C3708   1.082       .  S
N3685      N3703   1.319       .  A
N3685      N3690   1.330       .  A
C3686      N3690   1.348       .  A
C3686      C3714   1.466       .  S
C3686      C3778   1.471       .  S
N3687      C3702   1.343       .  A
N3687     Co3709   2.105       .  S
C3688      N3716   1.342       .  A
C3688      C3691   1.459       .  S
C3688      H3722   1.081       .  S
C3691      N3712   1.346       .  A
C3691      C3792   1.435       .  S
N3692      N3698   1.311       .  A
N3693      C3719   1.348       .  A
N3693      N3695   1.317       .  A
N3693     Co3709   2.098       .  S
N3694      C3708   1.339       .  A
N3695      N3723   1.317       .  A
N3695     Co3713   2.040       .  S
H3696      C3719   1.082       .  S
H3697      C3714   1.078       .  S
N3699     Co3713   2.084       .  S
N3700      N3712   1.323       .  A
N3700      N3716   1.328       .  A
N3700     Co3709   2.099       .  S
C3701      N3705   1.334       .  A
C3701      C3715   1.472       .  S
C3701      C3798   1.428       .  S
C3702      C3721   1.459       .  S
C3702      H3706   1.082       .  S
N3703      C3714   1.354       .  A
N3703     Co3713   2.120       .  S
C3707      N3723   1.334       .  A
C3707      C3719   1.468       .  S
C3707      C3796   1.429       .  S
Co3709    Cl3720   2.446       .  S
N3710      C3721   1.350       .  A
C3711      C3779   1.445       .  S
Co3713    Cl3720   2.447       .  S
C3721      C3805   1.444       .  S
C3724      N3742   1.355       .  A
C3724      C3761   1.454       .  S
C3724      C3838   1.447       .  S
N3725      N3742   1.329       .  A
N3725      N3747   1.324       .  A
N3725     Co3762   2.120       .  S
C3726      N3751   1.350       .  A
C3726      C3764   1.454       .  S
C3726      H3771   1.075       .  S
H3727      C3768   1.082       .  S
C3728      N3752   1.331       .  A
C3728      C3732   1.440       .  S
C3728      H3757   1.082       .  S
Co3729     N3747   2.083       .  S
Co3729     N3737   2.096       .  S
Co3729     N3769   2.037       .  S
Co3729     N3745   2.101       .  S
Co3729    Cl3773   2.438       .  S
N3730      C3768   1.340       .  A
N3730      N3737   1.315       .  A
N3730     Co3731   2.058       .  S
Co3731     N3734   2.137       .  S
Co3731     N3751   2.108       .  S
Co3731     N3738   2.018       .  S
Co3731    Cl3773   2.431       .  S
C3732      N3770   1.359       .  A
C3732      C3788   1.439       .  S
N3733      N3740   1.322       .  A
N3733      N3763   1.327       .  A
N3733     Co3766   2.099       .  S
N3734      N3752   1.323       .  A
N3734      N3770   1.332       .  A
N3735      C3764   1.356       .  A
N3735      N3745   1.333       .  A
H3736      C3761   1.082       .  S
N3737      N3758   1.327       .  A
N3738      N3756   1.312       .  A
N3738      N3743   1.305       .  A
C3739      N3743   1.319       .  A
C3739      C3767   1.492       .  S
C3739      C3790   1.432       .  S
N3740      C3755   1.340       .  A
N3740     Co3762   2.078       .  S
C3741      N3769   1.328       .  A
C3741      C3744   1.435       .  S
C3741      H3775   1.082       .  S
C3744      N3765   1.351       .  A
C3744      C3785   1.417       .  S
N3745      N3751   1.315       .  A
N3746      C3772   1.342       .  A
N3746      N3748   1.326       .  A
N3746     Co3762   2.105       .  S
N3747      C3761   1.339       .  A
N3748      N3776   1.326       .  A
N3748     Co3766   2.091       .  S
H3749      C3772   1.082       .  S
H3750      C3767   1.081       .  S
N3752     Co3766   2.048       .  S
N3753      N3765   1.326       .  A
N3753      N3769   1.316       .  A
N3753     Co3762   2.081       .  S
C3754      N3758   1.351       .  A
C3754      C3768   1.454       .  S
C3754      C3784   1.440       .  S
C3755      C3774   1.455       .  S
C3755      H3759   1.082       .  S
N3756      C3767   1.359       .  A
N3756     Co3766   2.125       .  S
C3760      N3776   1.349       .  A
C3760      C3772   1.458       .  S
C3760      C3782   1.440       .  S
Co3762    Cl3773   2.449       .  S
N3763      C3774   1.349       .  A
C3764      C3777   1.471       .  S
Co3766    Cl3773   2.466       .  S
C3774      C3839   1.439       .  S
C3777      C3778   1.227       .  T
C3781      C3782   1.208       .  T
C3783      C3784   1.208       .  T
C3785      C3786   1.196       .  T
C3787      C3788   1.208       .  T
C3789      C3790   1.214       .  T
C3791      C3792   1.205       .  T
C3793      C3794   1.212       .  T
C3795      C3796   1.203       .  T
C3797      C3798   1.203       .  T
C3799      C3800   1.215       .  T
C3801      C3802   1.203       .  T
C3803      C3804   1.205       .  T
C3805      C3806   1.210       .  T
C3807      C3808   1.210       .  T
C3809      C3810   1.207       .  T
C3811      C3812   1.213       .  T
C3813      C3814   1.196       .  T
C3815      C3816   1.210       .  T
C3817      C3818   1.213       .  T
C3819      C3820   1.221       .  T
C3821      C3822   1.218       .  T
C3823      C3824   1.204       .  T
C3825      C3826   1.201       .  T
C3827      C3828   1.202       .  T
C3829      C3830   1.204       .  T
C3831      C3832   1.216       .  T
C3833      C3834   1.205       .  T
C3835      C3836   1.202       .  T
C3837      C3838   1.212       .  T
C3839      C3840   1.208       .  T
C3841      C3842   1.208       .  T
C3843      C3844   1.208       .  T
C3845      C3846   1.199       .  T
C3847      C3848   1.212       .  T
C3851      C3852   1.216       .  T
C3853      C3854   1.219       .  T
C3855      C3856   1.207       .  T
C3857      C3858   1.209       .  T
C3859      C3860   1.211       .  T
C3861      C3862   1.199       .  T
C3863      C3864   1.220   1_554  T
C3865      C3866   1.201       .  T
C3867      C3868   1.215       .  T
C3869      C3870   1.202       .  T
C3871      C3872   1.205       .  T
C3873      C3874   1.215       .  T
C3875      C3876   1.209       .  T
C3877      C3878   1.198       .  T
C3879      C3880   1.201       .  T
C3881      C3882   1.201       .  T
C3883      C3884   1.201       .  T
C3885      C3886   1.220       .  T
C3887      C3888   1.221       .  T
C3889      C3890   1.209       .  T
C3891      C3892   1.206       .  T
C3893      C3894   1.217       .  T
C3895      C3896   1.209       .  T
C3897      C3898   1.210       .  T
C3899      C3900   1.207       .  T
C3901      C3902   1.211       .  T
C3903      C3904   1.214       .  T
