geometry optimzed in LAMMPS
_audit_creation_date              2020-11-30 
_audit_creation_method            'lammps2cif' 
_symmetry_space_group_name_H-M    'P1' 
_symmetry_Int_Tables_number       1 
_symmetry_cell_setting            triclinic 
loop_ 
_symmetry_equiv_pos_as_xyz 
  x,y,z 
_cell_length_a                    24.63662839 
_cell_length_b                    25.95873598056623 
_cell_length_c                    30.541977819464535 
_cell_angle_alpha                 75.78174605214646 
_cell_angle_beta                  79.58380767020613 
_cell_angle_gamma                 90.08395929718453 
loop_ 
_atom_site_label 
_atom_site_type_symbol 
_atom_site_fract_x 
_atom_site_fract_y 
_atom_site_fract_z 
_atom_site_charge 
N1          N  0.74806970  0.64591449  0.99807595    -0.03500
C2          C  0.79787857  0.67301194  0.98427135    -0.00900
C3          C  0.82872353  0.65772808  0.44734311    -0.23800
C4          C  0.79613168  0.62218446  0.43621294    -0.24000
C5          C  0.74735498  0.61605941  0.46755333    -0.01000
H6          H  0.86892852  0.67414948  0.42817251     0.12800
H7          H  0.80567536  0.60485757  0.40706631     0.12800
N8          N  0.23909886  0.59193787  0.04710099    -0.03500
C9          C  0.19107768  0.61635336  0.04339907    -0.00900
C10         C  0.15378229  0.59949259  0.08459659    -0.23800
C11         C  0.18092665  0.56652646  0.11505619    -0.24000
C12         C  0.23311960  0.56316672  0.09103013    -0.01000
H13         H  0.11470628  0.61672310  0.09389146     0.12800
H14         H  0.16626857  0.55134695  0.15163340     0.12800
N15         N  0.79712346  0.23180592  0.03813149    -0.03500
C16         C  0.84879527  0.21410995  0.03091648    -0.00900
C17         C  0.87841613  0.22549900  0.06210064    -0.23800
C18         C  0.84386892  0.25124167  0.08932482    -0.24000
C19         C  0.79459914  0.25445567  0.07369398    -0.01000
H20         H  0.91887973  0.21202385  0.06726080     0.12800
H21         H  0.85255840  0.26350035  0.11885066     0.12800
N22         N  0.02382998  0.84820782  0.49897029    -0.36600
N23         N  0.95079932  0.93381318  0.50550156    -0.57200
N24         N  0.04409786  0.00031936  0.00801875    -0.36600
N25         N  0.11562345  0.91353124  0.00331256    -0.57200
C26         C  0.97422215  0.82087948  0.51262472     0.26900
C27         C  0.06330771  0.81235390  0.00526296     0.26900
C28         C  0.00008770  0.02843308  0.01955859     0.26900
C29         C  0.08435219  0.01229608  0.02932716     0.26900
C30         C  0.91496429  0.89832514  0.49895788     0.35600
C31         C  0.92882643  0.98185245  0.49476182     0.35600
C32         C  0.14439295  0.87503864  0.98853193     0.35600
C33         C  0.15263775  0.95197891  0.00279933     0.35600
C34         C  0.98281930  0.76692449  0.52694928    -0.21900
C35         C  0.03860148  0.76173163  0.52314287    -0.21900
C36         C  0.01221775  0.05906693  0.04810125    -0.21900
C37         C  0.06503991  0.04811075  0.05505157    -0.21900
C38         C  0.86939000  0.92392241  0.48480629    -0.23000
C39         C  0.87901113  0.97711782  0.48081947    -0.23000
C40         C  0.20030092  0.88977995  0.97708320    -0.23000
C41         C  0.20555593  0.93874683  0.98635231    -0.23000
C42         C  0.92220627  0.84297121  0.50802861    -0.18300
C43         C  0.12115847  0.82379783  0.99347507    -0.18300
C44         C  0.13884829  0.99400208  0.02375510    -0.18300
C45         C  0.94968532  0.02785623  0.50392432    -0.18300
H46         H  0.95284889  0.73381827  0.53822895     0.14600
H47         H  0.05845306  0.72446542  0.53219155     0.14600
H48         H  0.98530629  0.08559759  0.06315813     0.14600
H49         H  0.08658142  0.06501928  0.07649825     0.14600
H50         H  0.83264592  0.90649377  0.47841974     0.12900
H51         H  0.85111736  0.00824548  0.47109910     0.12900
H52         H  0.23388232  0.86625460  0.96611506     0.12900
H53         H  0.24388091  0.96069068  0.98376776     0.12900
H54         H  0.03089448  0.88803584  0.48124470     0.26100
H55         H  0.04769734  0.97842359  0.98333494     0.26100
N56         N  0.28933524  0.12933363  0.13094892    -0.03500
C57         C  0.25361769  0.08787335  0.13425693    -0.00900
C58         C  0.23109739  0.06559640  0.18013455    -0.23800
C59         C  0.25341055  0.09386088  0.20560395    -0.24000
C60         C  0.28906131  0.13240111  0.17472245    -0.01000
H61         H  0.20112859  0.03239766  0.19369874     0.12800
H62         H  0.24461199  0.08710904  0.24264417     0.12800
N63         N  0.56070808  0.50433665  0.34067599    -0.06200
N64         N  0.55983814  0.52988349  0.37323959    -0.58300
N65         N  0.60571240  0.48071031  0.23777304    -0.05800
N66         N  0.64348193  0.49668201  0.20022330    -0.60400
N67         N  0.56409516  0.51216510  0.23684001    -0.05400
N68         N  0.57312734  0.55070725  0.19827759    -0.58300
N69         N  0.60170515  0.47199774  0.34076897    -0.05100
N70         N  0.62924458  0.47447917  0.37331214    -0.60800
C71         C  0.60268000  0.51041989  0.39352139     0.96000
C72         C  0.62307672  0.54036738  0.17557030     0.95800
N73         N  0.58442418  0.31591591  0.26724182    -0.06300
N74         N  0.59360190  0.29049647  0.23414774    -0.58900
N75         N  0.62036657  0.35157289  0.35687306    -0.04500
N76         N  0.65854623  0.34885557  0.38223987    -0.60100
N77         N  0.58877145  0.30775353  0.36991087    -0.06400
N78         N  0.60521010  0.27401298  0.40468822    -0.59100
N79         N  0.61661724  0.35940200  0.25571141    -0.04100
N80         N  0.64767033  0.36480288  0.21497674    -0.60200
Mn81       Mn  0.61251728  0.41612633  0.29760702     1.18400
C82         C  0.63294169  0.32199304  0.20152165     0.98100
C83         C  0.64891094  0.30050401  0.41211734     0.98800
N84         N  0.43381634  0.48723997  0.25994229    -0.06400
N85         N  0.42356311  0.51591302  0.22039596    -0.62700
N86         N  0.40019916  0.44545465  0.37541456    -0.05200
N87         N  0.36266542  0.45059571  0.41078154    -0.63400
N88         N  0.43364968  0.48811741  0.36036852    -0.05900
N89         N  0.42020616  0.52254499  0.38540078    -0.63000
N90         N  0.40040168  0.44442493  0.27499611    -0.04800
N91         N  0.36734807  0.44286782  0.24599013    -0.63700
Mn92       Mn  0.49781030  0.50015432  0.29862903     1.10700
C93         C  0.38234735  0.48722429  0.21192464     0.99300
C94         C  0.37607124  0.49875954  0.41697423     0.99400
N95         N  0.45907555  0.28805665  0.39562829    -0.05900
N96         N  0.45490708  0.25073131  0.43441690    -0.61300
N97         N  0.41285937  0.32217035  0.29728752    -0.05200
N98         N  0.37688785  0.30950501  0.27402544    -0.58000
N99         N  0.45544470  0.29191557  0.29491292    -0.06500
N100        N  0.44908990  0.25785528  0.27021642    -0.60800
N101        N  0.41731582  0.31956784  0.39792300    -0.05500
N102        N  0.38414126  0.30423408  0.43835140    -0.58000
Mn103      Mn  0.52229074  0.29873593  0.33219736     1.20200
Mn104      Mn  0.40576597  0.38267705  0.33727134     1.07300
Cl105      Cl  0.50941366  0.39935248  0.31648250    -0.86000
C106        C  0.40810172  0.26131297  0.46093035     0.96300
C107        C  0.39981792  0.26929076  0.25725200     0.96100
C108        C  0.40144778  0.19855647  0.21459322    -0.26400
C109        C  0.37185630  0.23737326  0.23270926    -0.14400
C110        C  0.31583060  0.24368308  0.22818389     0.36200
C111        C  0.29095285  0.21067865  0.20653624    -0.25800
C112        C  0.32037976  0.17167374  0.18924948    -0.15000
C113        C  0.37618644  0.16552212  0.19334810     0.37300
N114        N  0.40735875  0.12460265  0.17809068    -0.89300
H115        H  0.44423902  0.19289885  0.21784894     0.18400
H116        H  0.24757891  0.21409694  0.20450118     0.18400
N117        N  0.28359721  0.28213018  0.24676697    -0.88300
H118        H  0.40851210  0.13051850  0.14283212     0.35800
H119        H  0.38697323  0.08785593  0.19499091     0.40900
H120        H  0.27722570  0.26885663  0.28259362     0.40500
H121        H  0.24439523  0.28357100  0.23803951     0.35400
C122        C  0.36163097  0.14068621  0.06197475    -0.26400
C123        C  0.32208786  0.16290252  0.09005577    -0.14400
C124        C  0.31322700  0.21761654  0.07688374     0.36200
C125        C  0.34270844  0.24894950  0.03522362    -0.25800
C126        C  0.38191924  0.22692088  0.50646427    -0.15000
C127        C  0.39250673  0.17223012  0.02065321     0.37300
N128        N  0.43302192  0.14838526  0.99262955    -0.89300
H129        H  0.36828788  0.09855710  0.07254118     0.18400
H130        H  0.33399611  0.29064857  0.52494420     0.18400
N131        N  0.27126327  0.24058028  0.10406709    -0.88300
H132        H  0.43301571  0.10737058  0.00670292     0.35800
H133        H  0.47184095  0.16379128  0.49374368     0.40900
H134        H  0.24238655  0.25629284  0.08376306     0.40500
H135        H  0.28968049  0.27215138  0.11262880     0.35400
C136        C  0.23321987  0.01063220  0.10546536    -0.26400
C137        C  0.23863540  0.06638767  0.09663971    -0.14400
C138        C  0.21738977  0.09740790  0.05884122     0.36200
C139        C  0.19130467  0.07221025  0.03206570    -0.25800
C140        C  0.18080345  0.01691603  0.04428888    -0.15000
C141        C  0.20268727  0.98581274  0.08142645     0.37300
N142        N  0.19007890  0.92973465  0.09869510    -0.89300
H143        H  0.24829288  0.98597444  0.13451787     0.18400
H144        H  0.17395471  0.09651216  0.00415631     0.18400
N145        N  0.21569331  0.15401194  0.04934606    -0.88300
H146        H  0.20754232  0.91005817  0.07405845     0.35800
H147        H  0.14716242  0.92283326  0.10575747     0.40900
H148        H  0.20235015  0.16541334  0.07991794     0.40500
H149        H  0.25490588  0.17046344  0.03321752     0.35400
C150        C  0.83726476  0.12073964  0.03250267    -0.26400
C151        C  0.86412454  0.17014873  0.00955053    -0.14400
C152        C  0.91497756  0.17239570  0.97899692     0.36200
C153        C  0.93984328  0.12491571  0.47506598    -0.25800
C154        C  0.91598231  0.07555014  0.00211659    -0.15000
C155        C  0.86372676  0.07335187  0.03074000     0.37300
N156        N  0.83980706  0.02366272  0.06058130    -0.89300
H157        H  0.79887676  0.11936402  0.05669492     0.18400
H158        H  0.97997539  0.12669829  0.45306941     0.18400
N159        N  0.94407086  0.22197397  0.95405868    -0.88300
H160        H  0.80140776  0.02907864  0.07956829     0.35800
H161        H  0.86563588  0.01021483  0.08427038     0.40900
H162        H  0.92069096  0.25426212  0.95905812     0.40500
H163        H  0.94881941  0.22358550  0.41902108     0.35400
C164        C  0.66490878  0.25344044  0.15963243    -0.26400
C165        C  0.66503310  0.30700795  0.16115324    -0.14400
C166        C  0.70148167  0.34479865  0.12698460     0.36200
C167        C  0.74137961  0.32708239  0.09581744    -0.25800
C168        C  0.74437127  0.27301736  0.09747844    -0.15000
C169        C  0.70467078  0.23616408  0.12807757     0.37300
N170        N  0.70726841  0.18070177  0.12937955    -0.89300
H171        H  0.63668544  0.22426956  0.18504410     0.18400
H172        H  0.77197676  0.35510651  0.07166132     0.18400
N173        N  0.69951781  0.40063427  0.12528883    -0.88300
H174        H  0.66942908  0.16774010  0.12394049     0.35800
H175        H  0.71226099  0.16015434  0.16233152     0.40900
H176        H  0.66137306  0.41318843  0.11734147     0.40500
H177        H  0.72980724  0.42263730  0.09870375     0.35400
C178        C  0.73430924  0.31046745  0.44158166    -0.26400
C179        C  0.68665679  0.27906583  0.44453025    -0.14400
C180        C  0.67718625  0.22961170  0.47772546     0.36200
C181        C  0.71548929  0.21338219  0.00721883    -0.25800
C182        C  0.76247598  0.24564588  0.50422069    -0.15000
C183        C  0.77203820  0.29466593  0.47063024     0.37300
N184        N  0.81862736  0.33047823  0.46572624    -0.89300
H185        H  0.74258517  0.34851510  0.41654080     0.18400
H186        H  0.70812666  0.17618048  0.03339237     0.18400
N187        N  0.62881303  0.19647705  0.48190960    -0.88300
H188        H  0.84273855  0.33367009  0.43318846     0.35800
H189        H  0.84393068  0.31615807  0.48944930     0.40900
H190        H  0.59448071  0.21647992  0.49347811     0.40500
H191        H  0.62896727  0.16104419  0.00715958     0.35400
C192        C  0.20436451  0.70980755  0.04209472    -0.26400
C193        C  0.19104419  0.67270273  0.01866285    -0.14400
C194        C  0.16675260  0.68985805  0.97944971     0.36200
C195        C  0.15166187  0.74287890  0.46734641    -0.25800
C196        C  0.15723750  0.77765482  0.99532189    -0.15000
C197        C  0.18575243  0.76148707  0.03214051     0.37300
N198        N  0.19100359  0.79561372  0.06197963    -0.89300
H199        H  0.22307647  0.69632663  0.07217383     0.18400
H200        H  0.12956827  0.75520437  0.43915225     0.18400
N201        N  0.15311387  0.65405249  0.45345340    -0.88300
H202        H  0.21324909  0.77764176  0.08731352     0.35800
H203        H  0.15136664  0.80050748  0.07918451     0.40900
H204        H  0.16645954  0.61601780  0.46588551     0.40500
H205        H  0.17515736  0.66780011  0.41986763     0.35400
C206        C  0.28549883  0.48975328  0.12816328    -0.26400
C207        C  0.27954557  0.54436567  0.11359795    -0.14400
C208        C  0.31259110  0.58045678  0.12641589     0.36200
C209        C  0.34871373  0.56067171  0.15649231    -0.25800
C210        C  0.35134115  0.50574488  0.17443567    -0.15000
C211        C  0.32094014  0.46992264  0.15849038     0.37300
N212        N  0.32460219  0.41336135  0.17261238    -0.89300
H213        H  0.26038330  0.46229786  0.11769115     0.18400
H214        H  0.37230283  0.58827556  0.16808205     0.18400
N215        N  0.30631394  0.63679875  0.11161513    -0.88300
H216        H  0.30770571  0.39997135  0.20755267     0.35800
H217        H  0.36617961  0.40419547  0.16686877     0.40900
H218        H  0.31956664  0.64837472  0.07601566     0.40500
H219        H  0.33217241  0.65770901  0.12557572     0.35400
C220        C  0.32718414  0.59129890  0.99458846    -0.26400
C221        C  0.27189501  0.57342556  0.01056370    -0.14400
C222        C  0.25065425  0.53208924  0.99496375     0.36200
C223        C  0.28536545  0.50895979  0.46413193    -0.25800
C224        C  0.34108185  0.52604230  0.44848747    -0.15000
C225        C  0.36208972  0.56843091  0.46335239     0.37300
N226        N  0.41906976  0.58683376  0.44826198    -0.89300
H227        H  0.34330003  0.62261335  0.00706010     0.18400
H228        H  0.26881136  0.47697953  0.45261600     0.18400
N229        N  0.19400013  0.51304069  0.01136942    -0.88300
H230        H  0.42875232  0.61461296  0.46567587     0.35800
H231        H  0.42401658  0.60743002  0.41367829     0.40900
H232        H  0.18946528  0.49465121  0.04641891     0.40500
H233        H  0.18433271  0.48368779  0.99553943     0.35400
C234        C  0.82354839  0.72172660  0.03921251    -0.26400
C235        C  0.81222991  0.72277781  0.49565896    -0.14400
C236        C  0.82504229  0.77000530  0.46001668     0.36200
C237        C  0.85859840  0.81011749  0.46556440    -0.25800
C238        C  0.87570574  0.80657241  0.50738696    -0.15000
C239        C  0.85355495  0.76462537  0.04582461     0.37300
N240        N  0.86581487  0.76376589  0.09023268    -0.89300
H241        H  0.81226773  0.68640502  0.06707918     0.18400
H242        H  0.87353785  0.84311720  0.43622889     0.18400
N243        N  0.80502280  0.77816423  0.41765546    -0.88300
H244        H  0.84733816  0.72979110  0.11459962     0.35800
H245        H  0.84773299  0.79648456  0.10025658     0.40900
H246        H  0.76211829  0.77135312  0.42538565     0.40500
H247        H  0.82240599  0.75179621  0.39888080     0.35400
C248        C  0.66612525  0.64261117  0.05914905    -0.26400
C249        C  0.71975934  0.62720464  0.04514446    -0.14400
C250        C  0.74229924  0.58643784  0.07532681     0.36200
C251        C  0.71027100  0.56058128  0.11791848    -0.25800
C252        C  0.65555447  0.57392618  0.13155824    -0.15000
C253        C  0.63388532  0.61684963  0.10235783     0.37300
N254        N  0.57902928  0.63321944  0.11582803    -0.89300
H255        H  0.64898683  0.67395874  0.03593007     0.18400
H256        H  0.72802959  0.52850268  0.14003767     0.18400
N257        N  0.79733671  0.57026401  0.06183179    -0.88300
H258        H  0.56879069  0.66384746  0.08969897     0.35800
H259        H  0.57927859  0.64947708  0.14388908     0.40900
H260        H  0.79716145  0.55239628  0.03470967     0.40500
H261        H  0.80859451  0.54105669  0.08848695     0.35400
C262        C  0.69762438  0.53261720  0.47105975    -0.26400
C263        C  0.69843706  0.58809740  0.46206279    -0.14400
C264        C  0.65996794  0.61666111  0.43759650     0.36200
C265        C  0.62366894  0.58945801  0.42001910    -0.25800
C266        C  0.62716113  0.53462240  0.42453527    -0.15000
C267        C  0.66220211  0.50553442  0.45238907     0.37300
N268        N  0.66378467  0.44887892  0.45988105    -0.89300
H269        H  0.72737566  0.51071668  0.48963664     0.18400
H270        H  0.59684813  0.61211411  0.39871152     0.18400
N271        N  0.66060534  0.67362849  0.42625866    -0.88300
H272        H  0.65472000  0.43199379  0.49533290     0.35800
H273        H  0.70404780  0.43959225  0.44758744     0.40900
H274        H  0.69953147  0.68854344  0.90723420     0.40500
H275        H  0.65435459  0.68602401  0.95671040     0.35400
N276        N  0.74806957  0.64591464  0.49807587    -0.03500
C277        C  0.79787844  0.67301207  0.48427121    -0.00900
C278        C  0.82872373  0.65772802  0.94734322    -0.23800
C279        C  0.79613192  0.62218434  0.93621306    -0.24000
C280        C  0.74735518  0.61605925  0.96755342    -0.01000
H281        H  0.86892870  0.67414952  0.92817260     0.12800
H282        H  0.80567562  0.60485744  0.90706644     0.12800
N283        N  0.23909895  0.59193783  0.54710103    -0.03500
C284        C  0.19107774  0.61635328  0.54339915    -0.00900
C285        C  0.15378250  0.59949252  0.58459673    -0.23800
C286        C  0.18092690  0.56652643  0.61505630    -0.24000
C287        C  0.23311981  0.56316674  0.59103018    -0.01000
H288        H  0.11470653  0.61672304  0.59389169     0.12800
H289        H  0.16626883  0.55134692  0.65163351     0.12800
N290        N  0.79712341  0.23180594  0.53813141    -0.03500
C291        C  0.84879525  0.21410999  0.53091641    -0.00900
C292        C  0.87841609  0.22549907  0.56210057    -0.23800
C293        C  0.84386890  0.25124182  0.58932467    -0.24000
C294        C  0.79459909  0.25445571  0.57369390    -0.01000
H295        H  0.91887962  0.21202379  0.56726084     0.12800
H296        H  0.85255843  0.26350062  0.61885044     0.12800
N297        N  0.02383001  0.84820802  0.99897030    -0.36600
N298        N  0.95079934  0.93381329  0.00550146    -0.57200
N299        N  0.04409786  0.00031922  0.50801883    -0.36600
N300        N  0.11562350  0.91353113  0.50331262    -0.57200
C301        C  0.97422217  0.82087958  0.01262470     0.26900
C302        C  0.06330769  0.81235381  0.50526288     0.26900
C303        C  0.00008768  0.02843302  0.51955865     0.26900
C304        C  0.08435220  0.01229599  0.52932726     0.26900
C305        C  0.91496432  0.89832526  0.99895777     0.35600
C306        C  0.92882640  0.98185254  0.99476183     0.35600
C307        C  0.14439298  0.87503854  0.48853198     0.35600
C308        C  0.15263782  0.95197876  0.50279947     0.35600
C309        C  0.98281933  0.76692463  0.02694926    -0.21900
C310        C  0.03860150  0.76173176  0.02314296    -0.21900
C311        C  0.01221778  0.05906689  0.54810125    -0.21900
C312        C  0.06503992  0.04811068  0.55505163    -0.21900
C313        C  0.86938996  0.92392253  0.98480626    -0.23000
C314        C  0.87901108  0.97711792  0.98081955    -0.23000
C315        C  0.20030100  0.88977978  0.47708335    -0.23000
C316        C  0.20555603  0.93874666  0.48635250    -0.23000
C317        C  0.92220629  0.84297132  0.00802855    -0.18300
C318        C  0.12115847  0.82379774  0.49347508    -0.18300
C319        C  0.13884831  0.99400198  0.52375520    -0.18300
C320        C  0.94968533  0.02785631  0.00392431    -0.18300
H321        H  0.95284892  0.73381841  0.03822883     0.14600
H322        H  0.05845308  0.72446555  0.03219168     0.14600
H323        H  0.98530636  0.08559760  0.56315808     0.14600
H324        H  0.08658138  0.06501920  0.57649835     0.14600
H325        H  0.83264586  0.90649392  0.97841970     0.12900
H326        H  0.85111737  0.00824564  0.97109920     0.12900
H327        H  0.23388237  0.86625438  0.46611523     0.12900
H328        H  0.24388100  0.96069053  0.48376798     0.12900
H329        H  0.03089447  0.88803581  0.98124483     0.26100
H330        H  0.04769729  0.97842348  0.48333516     0.26100
N331        N  0.28933534  0.12933355  0.63094900    -0.03500
C332        C  0.25361774  0.08787332  0.63425700    -0.00900
C333        C  0.23109743  0.06559639  0.68013463    -0.23800
C334        C  0.25341062  0.09386084  0.70560402    -0.24000
C335        C  0.28906139  0.13240105  0.67472251    -0.01000
H336        H  0.20112861  0.03239767  0.69369883     0.12800
H337        H  0.24461210  0.08710901  0.74264424     0.12800
N338        N  0.56070822  0.50433660  0.84067602    -0.06200
N339        N  0.55983830  0.52988341  0.87323964    -0.58300
N340        N  0.60571249  0.48071036  0.73777309    -0.05800
N341        N  0.64348201  0.49668203  0.70022335    -0.60400
N342        N  0.56409527  0.51216516  0.73684007    -0.05400
N343        N  0.57312742  0.55070727  0.69827761    -0.58300
N344        N  0.60170534  0.47199773  0.84076895    -0.05100
N345        N  0.62924481  0.47447918  0.87331205    -0.60800
C346        C  0.60268021  0.51041983  0.89352137     0.96000
C347        C  0.62307680  0.54036738  0.67557032     0.95800
N348        N  0.58442432  0.31591585  0.76724188    -0.06300
N349        N  0.59360216  0.29049635  0.73414784    -0.58900
N350        N  0.62036666  0.35157288  0.85687300    -0.04500
N351        N  0.65854631  0.34885564  0.88223980    -0.60100
N352        N  0.58877155  0.30775351  0.86991084    -0.06400
N353        N  0.60521018  0.27401304  0.90468826    -0.59100
N354        N  0.61661725  0.35940202  0.75571143    -0.04100
N355        N  0.64767033  0.36480295  0.71497676    -0.60200
Mn356      Mn  0.61251732  0.41612634  0.79760701     1.18400
C357        C  0.63294184  0.32199304  0.70152172     0.98100
C358        C  0.64891101  0.30050411  0.91211735     0.98800
N359        N  0.43381664  0.48724001  0.75994228    -0.06400
N360        N  0.42356345  0.51591300  0.72039592    -0.62700
N361        N  0.40019936  0.44545467  0.87541457    -0.05200
N362        N  0.36266562  0.45059576  0.91078153    -0.63400
N363        N  0.43364988  0.48811743  0.86036850    -0.05900
N364        N  0.42020635  0.52254504  0.88540073    -0.63000
N365        N  0.40040193  0.44442499  0.77499614    -0.04800
N366        N  0.36734833  0.44286786  0.74599016    -0.63700
Mn367      Mn  0.49781048  0.50015435  0.79862906     1.10700
C368        C  0.38234768  0.48722426  0.71192462     0.99300
C369        C  0.37607142  0.49875962  0.91697417     0.99400
N370        N  0.45907563  0.28805659  0.89562829    -0.05900
N371        N  0.45490716  0.25073122  0.93441690    -0.61300
N372        N  0.41285942  0.32217036  0.79728757    -0.05200
N373        N  0.37688791  0.30950506  0.77402545    -0.58000
N374        N  0.45544482  0.29191569  0.79491283    -0.06500
N375        N  0.44909012  0.25785557  0.77021617    -0.60800
N376        N  0.41731596  0.31956783  0.89792303    -0.05500
N377        N  0.38414140  0.30423407  0.93835144    -0.58000
Mn378      Mn  0.52229083  0.29873592  0.83219736     1.20200
Mn379      Mn  0.40576609  0.38267707  0.83727138     1.07300
Cl380      Cl  0.50941373  0.39935251  0.81648255    -0.86000
C381        C  0.40810182  0.26131294  0.96093035     0.96300
C382        C  0.39981810  0.26929098  0.75725181     0.96100
C383        C  0.40144789  0.19855646  0.71459322    -0.26400
C384        C  0.37185643  0.23737333  0.73270920    -0.14400
C385        C  0.31583067  0.24368305  0.72818393     0.36200
C386        C  0.29095289  0.21067857  0.70653632    -0.25800
C387        C  0.32037982  0.17167371  0.68924954    -0.15000
C388        C  0.37618651  0.16552214  0.69334810     0.37300
N389        N  0.40735882  0.12460279  0.67809049    -0.89300
H390        H  0.44423913  0.19289881  0.71784893     0.18400
H391        H  0.24757895  0.21409681  0.70450128     0.18400
N392        N  0.28359727  0.28213013  0.74676702    -0.88300
H393        H  0.40851214  0.13051878  0.64283204     0.35800
H394        H  0.38697327  0.08785599  0.69499076     0.40900
H395        H  0.27722587  0.26885657  0.78259367     0.40500
H396        H  0.24439525  0.28357087  0.73803964     0.35400
C397        C  0.36163096  0.14068619  0.56197478    -0.26400
C398        C  0.32208787  0.16290245  0.59005581    -0.14400
C399        C  0.31322695  0.21761646  0.57688376     0.36200
C400        C  0.34270843  0.24894944  0.53522366    -0.25800
C401        C  0.38191928  0.22692089  0.00646426    -0.15000
C402        C  0.39250670  0.17223010  0.52065325     0.37300
N403        N  0.43302196  0.14838529  0.49262962    -0.89300
H404        H  0.36828790  0.09855708  0.57254123     0.18400
H405        H  0.33399605  0.29064862  0.02494413     0.18400
N406        N  0.27126326  0.24058019  0.60406713    -0.88300
H407        H  0.43301579  0.10737054  0.50670313     0.35800
H408        H  0.47184107  0.16379126  0.99374356     0.40900
H409        H  0.24238656  0.25629283  0.58376313     0.40500
H410        H  0.28968057  0.27215128  0.61262888     0.35400
C411        C  0.23321976  0.01063227  0.60546548    -0.26400
C412        C  0.23863537  0.06638770  0.59663979    -0.14400
C413        C  0.21738976  0.09740792  0.55884131     0.36200
C414        C  0.19130466  0.07221023  0.53206579    -0.25800
C415        C  0.18080345  0.01691600  0.54428897    -0.15000
C416        C  0.20268718  0.98581277  0.58142662     0.37300
N417        N  0.19007872  0.92973474  0.59869541    -0.89300
H418        H  0.24829270  0.98597453  0.63451803     0.18400
H419        H  0.17395473  0.09651213  0.50415638     0.18400
N420        N  0.21569329  0.15401193  0.54934618    -0.88300
H421        H  0.20754214  0.91005813  0.57405875     0.35800
H422        H  0.14716229  0.92283345  0.60575786     0.40900
H423        H  0.20235023  0.16541335  0.57991796     0.40500
H424        H  0.25490601  0.17046344  0.53321749     0.35400
C425        C  0.83726479  0.12073964  0.53250267    -0.26400
C426        C  0.86412456  0.17014874  0.50955051    -0.14400
C427        C  0.91497758  0.17239571  0.47899688     0.36200
C428        C  0.93984327  0.12491573  0.97506598    -0.25800
C429        C  0.91598228  0.07555010  0.50211655    -0.15000
C430        C  0.86372672  0.07335183  0.53073995     0.37300
N431        N  0.83980706  0.02366270  0.56058129    -0.89300
H432        H  0.79887682  0.11936400  0.55669496     0.18400
H433        H  0.97997538  0.12669832  0.95306940     0.18400
N434        N  0.94407085  0.22197400  0.45405862    -0.88300
H435        H  0.80140776  0.02907861  0.57956835     0.35800
H436        H  0.86563594  0.01021487  0.58427031     0.40900
H437        H  0.92069095  0.25426215  0.45905802     0.40500
H438        H  0.94881936  0.22358545  0.91902116     0.35400
C439        C  0.66490886  0.25344060  0.65963242    -0.26400
C440        C  0.66503324  0.30700805  0.66115329    -0.14400
C441        C  0.70148176  0.34479876  0.62698464     0.36200
C442        C  0.74137964  0.32708250  0.59581742    -0.25800
C443        C  0.74437125  0.27301745  0.59747838    -0.15000
C444        C  0.70467077  0.23616420  0.62807756     0.37300
N445        N  0.70726837  0.18070187  0.62937961    -0.89300
H446        H  0.63668545  0.22426977  0.68504409     0.18400
H447        H  0.77197678  0.35510661  0.57166129     0.18400
N448        N  0.69951784  0.40063438  0.62528892    -0.88300
H449        H  0.66942899  0.16774022  0.62394059     0.35800
H450        H  0.71226096  0.16015451  0.66233160     0.40900
H451        H  0.66137319  0.41318852  0.61734162     0.40500
H452        H  0.72980732  0.42263745  0.59870379     0.35400
C453        C  0.73430926  0.31046753  0.94158179    -0.26400
C454        C  0.68665683  0.27906593  0.94453033    -0.14400
C455        C  0.67718637  0.22961172  0.97772548     0.36200
C456        C  0.71548920  0.21338227  0.50721879    -0.25800
C457        C  0.76247601  0.24564586  0.00422078    -0.15000
C458        C  0.77203820  0.29466596  0.97063037     0.37300
N459        N  0.81862743  0.33047822  0.96572634    -0.89300
H460        H  0.74258523  0.34851516  0.91654091     0.18400
H461        H  0.70812655  0.17618059  0.53339236     0.18400
N462        N  0.62881319  0.19647706  0.98190953    -0.88300
H463        H  0.84273863  0.33366993  0.93318856     0.35800
H464        H  0.84393071  0.31615808  0.98944939     0.40900
H465        H  0.59448093  0.21647974  0.99347829     0.40500
H466        H  0.62896693  0.16104430  0.50715981     0.35400
C467        C  0.20436449  0.70980749  0.54209483    -0.26400
C468        C  0.19104417  0.67270266  0.51866297    -0.14400
C469        C  0.16675261  0.68985799  0.47944983     0.36200
C470        C  0.15166179  0.74287896  0.96734630    -0.25800
C471        C  0.15723750  0.77765474  0.49532200    -0.15000
C472        C  0.18575241  0.76148702  0.53214063     0.37300
N473        N  0.19100354  0.79561367  0.56197974    -0.89300
H474        H  0.22307647  0.69632661  0.57217393     0.18400
H475        H  0.12956808  0.75520437  0.93915219     0.18400
N476        N  0.15311379  0.65405242  0.95345341    -0.88300
H477        H  0.21324904  0.77764174  0.58731363     0.35800
H478        H  0.15136658  0.80050740  0.57918462     0.40900
H479        H  0.16645959  0.61601782  0.96588545     0.40500
H480        H  0.17515713  0.66780004  0.91986751     0.35400
C481        C  0.28549898  0.48975332  0.62816335    -0.26400
C482        C  0.27954582  0.54436570  0.61359796    -0.14400
C483        C  0.31259139  0.58045674  0.62641592     0.36200
C484        C  0.34871401  0.56067162  0.65649235    -0.25800
C485        C  0.35134141  0.50574480  0.67443569    -0.15000
C486        C  0.32094029  0.46992261  0.65849042     0.37300
N487        N  0.32460232  0.41336131  0.67261231    -0.89300
H488        H  0.26038338  0.46229798  0.61769121     0.18400
H489        H  0.37230314  0.58827541  0.66808211     0.18400
N490        N  0.30631428  0.63679870  0.61161520    -0.88300
H491        H  0.30770585  0.39997119  0.70755255     0.35800
H492        H  0.36617982  0.40419546  0.66686868     0.40900
H493        H  0.31956708  0.64837469  0.57601574     0.40500
H494        H  0.33217269  0.65770889  0.62557587     0.35400
C495        C  0.32718414  0.59129880  0.49458853    -0.26400
C496        C  0.27189501  0.57342551  0.51056373    -0.14400
C497        C  0.25065416  0.53208922  0.49496378     0.36200
C498        C  0.28536559  0.50895987  0.96413189    -0.25800
C499        C  0.34108197  0.52604243  0.94848737    -0.15000
C500        C  0.36208976  0.56843108  0.96335230     0.37300
N501        N  0.41906975  0.58683405  0.94826179    -0.89300
H502        H  0.34330008  0.62261322  0.50706017     0.18400
H503        H  0.26881152  0.47697959  0.95261597     0.18400
N504        N  0.19400005  0.51304066  0.51136950    -0.88300
H505        H  0.42875228  0.61461329  0.96567580     0.35800
H506        H  0.42401642  0.60743032  0.91367825     0.40900
H507        H  0.18946533  0.49465118  0.54641903     0.40500
H508        H  0.18433263  0.48368780  0.49553958     0.35400
C509        C  0.82354837  0.72172656  0.53921240    -0.26400
C510        C  0.81222995  0.72277775  0.99565908    -0.14400
C511        C  0.82504228  0.77000522  0.96001678     0.36200
C512        C  0.85859835  0.81011747  0.96556447    -0.25800
C513        C  0.87570573  0.80657248  0.00738701    -0.15000
C514        C  0.85355496  0.76462529  0.54582451     0.37300
N515        N  0.86581485  0.76376577  0.59023260    -0.89300
H516        H  0.81226764  0.68640499  0.56707906     0.18400
H517        H  0.87353778  0.84311716  0.93622894     0.18400
N518        N  0.80502278  0.77816409  0.91765557    -0.88300
H519        H  0.84733817  0.72979104  0.61459946     0.35800
H520        H  0.84773290  0.79648447  0.60025648     0.40900
H521        H  0.76211826  0.77135299  0.92538576     0.40500
H522        H  0.82240596  0.75179608  0.89888090     0.35400
C523        C  0.66612527  0.64261116  0.55914902    -0.26400
C524        C  0.71975935  0.62720472  0.54514438    -0.14400
C525        C  0.74229928  0.58643783  0.57532667     0.36200
C526        C  0.71027108  0.56058123  0.61791835    -0.25800
C527        C  0.65555458  0.57392616  0.63155821    -0.15000
C528        C  0.63388540  0.61684959  0.60235780     0.37300
N529        N  0.57902938  0.63321935  0.61582805    -0.89300
H530        H  0.64898679  0.67395867  0.53593002     0.18400
H531        H  0.72802967  0.52850254  0.64003745     0.18400
N532        N  0.79733670  0.57026394  0.56183150    -0.88300
H533        H  0.56879080  0.66384750  0.58969897     0.35800
H534        H  0.57927871  0.64947689  0.64388911     0.40900
H535        H  0.79716137  0.55239632  0.53470934     0.40500
H536        H  0.80859451  0.54105648  0.58848663     0.35400
C537        C  0.69762458  0.53261707  0.97105972    -0.26400
C538        C  0.69843729  0.58809727  0.96206277    -0.14400
C539        C  0.65996817  0.61666103  0.93759648     0.36200
C540        C  0.62366922  0.58945795  0.92001902    -0.25800
C541        C  0.62716137  0.53462235  0.92453520    -0.15000
C542        C  0.66220225  0.50553433  0.95238905     0.37300
N543        N  0.66378462  0.44887882  0.95988111    -0.89300
H544        H  0.72737582  0.51071650  0.98963661     0.18400
H545        H  0.59684840  0.61211408  0.89871147     0.18400
N546        N  0.66060544  0.67362840  0.92625876    -0.88300
H547        H  0.65471993  0.43199377  0.99533297     0.35800
H548        H  0.70404773  0.43959206  0.94758754     0.40900
H549        H  0.69953128  0.68854339  0.40723407     0.40500
H550        H  0.65435454  0.68602420  0.45671030     0.35400
loop_ 
_geom_bond_atom_site_label_1 
_geom_bond_atom_site_label_2 
_geom_bond_distance 
_geom_bond_site_symmetry_2 
_ccdc_geom_bond_type 
N1            C2   1.358       .  A
N1          C280   1.353       .  A
N1          C249   1.443   1_556  S
C2          C278   1.385       .  A
C2          C510   1.476       .  S
C3            C4   1.365       .  A
C3          C277   1.385       .  A
C3            H6   1.083       .  S
C4            C5   1.376       .  A
C4            H7   1.082       .  S
C5          N276   1.353       .  A
C5          C263   1.462       .  S
N8           C12   1.347       .  A
N8            C9   1.353       .  A
N8          C221   1.438       .  S
C9           C10   1.389       .  A
C9          C193   1.472       .  S
C10          C11   1.371       .  A
C10          H13   1.083       .  S
C11          C12   1.375       .  A
C11          H14   1.082       .  S
C12         C207   1.464       .  S
N15          C19   1.349       .  A
N15          C16   1.353       .  A
N15         C457   1.438       .  S
C16          C17   1.384       .  A
C16         C151   1.466       .  S
C17          C18   1.372       .  A
C17          H20   1.082       .  S
C18          C19   1.378       .  A
C18          H21   1.082       .  S
C19         C168   1.463       .  S
N22          C26   1.356   1_455  A
N22         C302   1.353       .  A
N22          H54   1.041       .  S
N23          C30   1.349       .  A
N23          C31   1.349       .  A
N24          C29   1.355       .  A
N24          C28   1.350       .  A
N24          H55   1.042   1_544  S
N25          C32   1.346   1_554  A
N25          C33   1.346       .  A
C26          C34   1.390       .  A
C26          C42   1.421       .  A
C27         N297   1.353   1_554  A
C27          C43   1.418   1_554  A
C27         C310   1.386       .  A
C28          C36   1.384       .  A
C28         C320   1.410   1_455  A
C29          C44   1.420   1_545  A
C29          C37   1.390       .  A
C30          C42   1.413       .  A
C30          C38   1.388       .  A
C31          C45   1.408   1_565  A
C31          C39   1.385       .  A
C32          C40   1.387       .  A
C32          C43   1.410       .  A
C33          C41   1.385   1_554  A
C33          C44   1.407       .  A
C34          C35   1.368   1_655  A
C34          H46   1.078       .  S
C35         C302   1.386       .  A
C35          H47   1.082       .  S
C36          C37   1.375       .  A
C36          H48   1.083   1_455  S
C37          H49   1.081       .  S
C38          C39   1.373       .  A
C38          H50   1.081       .  S
C39          H51   1.082   1_565  S
C40          C41   1.379       .  A
C40          H52   1.082       .  S
C41          H53   1.082       .  S
C42         C238   1.490       .  S
C43         C196   1.489       .  S
C44         C140   1.494   1_565  S
C45         C303   1.410   1_655  A
C45         C429   1.487       .  S
N56          C60   1.357       .  A
N56          C57   1.362       .  A
N56         C123   1.438       .  S
C57          C58   1.388       .  A
C57         C137   1.495       .  S
C58          C59   1.371       .  A
C58          H61   1.082       .  S
C59          C60   1.377       .  A
C59          H62   1.082       .  S
C60         C112   1.475       .  S
N63          N64   1.321       .  A
N63          N69   1.314       .  A
N63         Mn92   2.202       .  S
N64          C71   1.355       .  A
N65          N67   1.312       .  A
N65          N66   1.316       .  A
N65         Mn81   2.187       .  S
N66          C72   1.351       .  A
N67          N68   1.328       .  A
N67         Mn92   2.218       .  S
N68          C72   1.361       .  A
N69          N70   1.314       .  A
N69         Mn81   2.174       .  S
N70          C71   1.348       .  A
C71         C266   1.467       .  S
C72         C252   1.497       .  S
N73          N79   1.315       .  A
N73          N74   1.324       .  A
N73        Mn103   2.223       .  S
N74          C82   1.360       .  A
N75          N76   1.314       .  A
N75          N77   1.312       .  A
N75         Mn81   2.182       .  S
N76          C83   1.350       .  A
N77          N78   1.326       .  A
N77        Mn103   2.209       .  S
N78          C83   1.359       .  A
N79          N80   1.312       .  A
N79         Mn81   2.167       .  S
N80          C82   1.346       .  A
Mn81       Cl105   2.514       .  S
C82         C165   1.477       .  S
C83         C179   1.489       .  S
N84          N85   1.321       .  A
N84          N90   1.317       .  A
N84         Mn92   2.205       .  S
N85          C93   1.356       .  A
N86          N88   1.314       .  A
N86          N87   1.323       .  A
N86        Mn104   2.215       .  S
N87          C94   1.359       .  A
N88          N89   1.318       .  A
N88         Mn92   2.187       .  S
N89          C94   1.349       .  A
N90          N91   1.315       .  A
N90        Mn104   2.190       .  S
N91          C93   1.348       .  A
Mn92       Cl105   2.566       .  S
C93         C210   1.474       .  S
C94         C224   1.486       .  S
N95          N96   1.321       .  A
N95         N101   1.318       .  A
N95        Mn103   2.213       .  S
N96         C106   1.354       .  A
N97          N98   1.319       .  A
N97          N99   1.314       .  A
N97        Mn104   2.203       .  S
N98         C107   1.353       .  A
N99         N100   1.321       .  A
N99        Mn103   2.195       .  S
N100        C107   1.355       .  A
N101        N102   1.321       .  A
N101       Mn104   2.213       .  S
N102        C106   1.355       .  A
Mn103      Cl105   2.568       .  S
Mn104      Cl105   2.527       .  S
C106        C126   1.487       .  S
C107        C109   1.488       .  S
C108        C109   1.408       .  A
C108        C113   1.401       .  A
C108        H115   1.084       .  S
C109        C110   1.418       .  A
C110        C111   1.404       .  A
C110        N117   1.438       .  S
C111        C112   1.399       .  A
C111        H116   1.084       .  S
C112        C113   1.409       .  A
C113        N114   1.432       .  S
N114        H118   1.045       .  S
N114        H119   1.045       .  S
N117        H120   1.046       .  S
N117        H121   1.046       .  S
C122        C123   1.400       .  A
C122        C127   1.409       .  A
C122        H129   1.083       .  S
C123        C124   1.407       .  A
C124        C125   1.401       .  A
C124        N131   1.431       .  S
C125        C401   1.405       .  A
C125        H405   1.084       .  S
C126        C400   1.405       .  A
C126        C402   1.418       .  A
C127        C401   1.418       .  A
C127        N128   1.437   1_554  S
N128        H132   1.046   1_556  S
N128        H408   1.046       .  S
H130        C400   1.084       .  S
N131        H134   1.046       .  S
N131        H135   1.045       .  S
H133        N403   1.045       .  S
C136        C137   1.407       .  A
C136        C141   1.397   1_545  A
C136        H143   1.084   1_545  S
C137        C138   1.421       .  A
C138        C139   1.400       .  A
C138        N145   1.428       .  S
C139        C140   1.403       .  A
C139        H144   1.084       .  S
C140        C141   1.415   1_545  A
C141        N142   1.434       .  S
N142        H146   1.041       .  S
N142        H147   1.046       .  S
N145        H148   1.045       .  S
N145        H149   1.040       .  S
C150        C151   1.401       .  A
C150        C155   1.401       .  A
C150        H157   1.084       .  S
C151        C152   1.412   1_554  A
C152        C428   1.399       .  A
C152        N159   1.438       .  S
C153        C427   1.399       .  A
C153        C429   1.404       .  A
C153        H158   1.084       .  S
C154        C155   1.412       .  A
C154        C428   1.404   1_554  A
C154        C320   1.487       .  S
C155        N156   1.438       .  S
N156        H160   1.046       .  S
N156        H161   1.046       .  S
N159        H162   1.044       .  S
N159        H438   1.046       .  S
H163        N434   1.046       .  S
C164        C165   1.403       .  A
C164        C169   1.401       .  A
C164        H171   1.083       .  S
C165        C166   1.419       .  A
C166        C167   1.401       .  A
C166        N173   1.439       .  S
C167        C168   1.394       .  A
C167        H172   1.084       .  S
C168        C169   1.405       .  A
C169        N170   1.432       .  S
N170        H174   1.045       .  S
N170        H175   1.046       .  S
N173        H176   1.045       .  S
N173        H177   1.046       .  S
C178        C179   1.405       .  A
C178        C183   1.393       .  A
C178        H185   1.083       .  S
C179        C180   1.416       .  A
C180        C456   1.415       .  A
C180        N187   1.437       .  S
C181        C455   1.415   1_554  A
C181        C457   1.404       .  A
C181        H186   1.083       .  S
C182        N290   1.438       .  S
C182        C183   1.413       .  A
C182        C456   1.404       .  A
C183        N184   1.439       .  S
N184        H188   1.046       .  S
N184        H189   1.041       .  S
N187        H190   1.046       .  S
N187        H466   1.046       .  S
H191        N462   1.046   1_554  S
C192        C193   1.404       .  A
C192        C197   1.398       .  A
C192        H199   1.084       .  S
C193        C194   1.410   1_554  A
C194        C470   1.404       .  A
C194        N476   1.437       .  S
C195        C469   1.404       .  A
C195        C471   1.409       .  A
C195        H200   1.084       .  S
C196        C197   1.410   1_556  A
C196        C470   1.409       .  A
C197        N198   1.439       .  S
N198        H202   1.046       .  S
N198        H203   1.046       .  S
N201        C469   1.437       .  S
N201        H204   1.044       .  S
N201        H205   1.045       .  S
C206        C207   1.394       .  A
C206        C211   1.395       .  A
C206        H213   1.084       .  S
C207        C208   1.410       .  A
C208        C209   1.402       .  A
C208        N215   1.438       .  S
C209        C210   1.402       .  A
C209        H214   1.084       .  S
C210        C211   1.420       .  A
C211        N212   1.433       .  S
N212        H216   1.044       .  S
N212        H217   1.045       .  S
N215        H218   1.044       .  S
N215        H219   1.046       .  S
C220        C221   1.398   1_556  A
C220        C500   1.409       .  A
C220        H227   1.081   1_556  S
C221        C222   1.411   1_554  A
C222        C498   1.402       .  A
C222        N229   1.438   1_556  S
C223        C224   1.402       .  A
C223        C497   1.402       .  A
C223        H228   1.083       .  S
C224        C225   1.419       .  A
C225        C495   1.409       .  A
C225        N226   1.438       .  S
N226        H230   1.046       .  S
N226        H231   1.045       .  S
N229        H232   1.045       .  S
N229        H233   1.046   1_554  S
C234        C239   1.410       .  A
C234        C510   1.402   1_554  A
C234        H241   1.083       .  S
C235        C236   1.417       .  A
C235        C509   1.402       .  A
C235        C277   1.476       .  S
C236        C237   1.390       .  A
C236        N243   1.435       .  S
C237        C238   1.398       .  A
C237        H242   1.084       .  S
C238        C514   1.414       .  A
C239        C513   1.414       .  A
C239        N240   1.437       .  S
N240        H244   1.045       .  S
N240        H245   1.046       .  S
N243        H246   1.045       .  S
N243        H247   1.042       .  S
C248        C249   1.404       .  A
C248        C253   1.416       .  A
C248        H255   1.081       .  S
C249        C250   1.409       .  A
C250        C251   1.401       .  A
C250        N257   1.439       .  S
C251        C252   1.407       .  A
C251        H256   1.083       .  S
C252        C253   1.417       .  A
C253        N254   1.436       .  S
N254        H258   1.046       .  S
N254        H259   1.045       .  S
N257        H260   1.045       .  S
N257        H261   1.046       .  S
C262        C263   1.398       .  A
C262        C267   1.399       .  A
C262        H269   1.084       .  S
C263        C264   1.412       .  A
C264        C265   1.394       .  A
C264        N271   1.433       .  S
C265        C266   1.400       .  A
C265        H270   1.084       .  S
C266        C267   1.411       .  A
C267        N268   1.434       .  S
N268        H272   1.046       .  S
N268        H273   1.046       .  S
N271        H549   1.046       .  S
N271        H550   1.043       .  S
H274        N546   1.046       .  S
H275        N546   1.043       .  S
N276        C277   1.358       .  A
N276        C524   1.443       .  S
C278        C279   1.365       .  A
C278        H281   1.083       .  S
C279        C280   1.376       .  A
C279        H282   1.082       .  S
C280        C538   1.462       .  S
N283        C287   1.347       .  A
N283        C284   1.353       .  A
N283        C496   1.438       .  S
C284        C285   1.389       .  A
C284        C468   1.472       .  S
C285        C286   1.371       .  A
C285        H288   1.083       .  S
C286        C287   1.375       .  A
C286        H289   1.082       .  S
C287        C482   1.464       .  S
N290        C294   1.349       .  A
N290        C291   1.353       .  A
C291        C292   1.384       .  A
C291        C426   1.466       .  S
C292        C293   1.372       .  A
C292        H295   1.082       .  S
C293        C294   1.378       .  A
C293        H296   1.082       .  S
C294        C443   1.463       .  S
N297        C301   1.356   1_456  A
N297        H329   1.041       .  S
N298        C305   1.349   1_554  A
N298        C306   1.349   1_554  A
N299        C304   1.355       .  A
N299        C303   1.350       .  A
N299        H330   1.042   1_545  S
N300        C307   1.346       .  A
N300        C308   1.346       .  A
C301        C309   1.390       .  A
C301        C317   1.421       .  A
C302        C318   1.418       .  A
C303        C311   1.384       .  A
C304        C319   1.420   1_545  A
C304        C312   1.390       .  A
C305        C317   1.413   1_556  A
C305        C313   1.388       .  A
C306        C320   1.408   1_566  A
C306        C314   1.385       .  A
C307        C315   1.387       .  A
C307        C318   1.410       .  A
C308        C316   1.385       .  A
C308        C319   1.407       .  A
C309        C310   1.368   1_655  A
C309        H321   1.078       .  S
C310        H322   1.082       .  S
C311        C312   1.375       .  A
C311        H323   1.083   1_455  S
C312        H324   1.081       .  S
C313        C314   1.373       .  A
C313        H325   1.081       .  S
C314        H326   1.082   1_565  S
C315        C316   1.379       .  A
C315        H327   1.082       .  S
C316        H328   1.082       .  S
C317        C513   1.490       .  S
C318        C471   1.489       .  S
C319        C415   1.494   1_565  S
N331        C335   1.357       .  A
N331        C332   1.362       .  A
N331        C398   1.438       .  S
C332        C333   1.388       .  A
C332        C412   1.495       .  S
C333        C334   1.371       .  A
C333        H336   1.082       .  S
C334        C335   1.377       .  A
C334        H337   1.082       .  S
C335        C387   1.475       .  S
N338        N339   1.321       .  A
N338        N344   1.314       .  A
N338       Mn367   2.202       .  S
N339        C346   1.355       .  A
N340        N342   1.312       .  A
N340        N341   1.316       .  A
N340       Mn356   2.187       .  S
N341        C347   1.351       .  A
N342        N343   1.328       .  A
N342       Mn367   2.218       .  S
N343        C347   1.361       .  A
N344        N345   1.314       .  A
N344       Mn356   2.174       .  S
N345        C346   1.348       .  A
C346        C541   1.467       .  S
C347        C527   1.497       .  S
N348        N354   1.315       .  A
N348        N349   1.324       .  A
N348       Mn378   2.223       .  S
N349        C357   1.360       .  A
N350        N351   1.314       .  A
N350        N352   1.312       .  A
N350       Mn356   2.182       .  S
N351        C358   1.350       .  A
N352        N353   1.326       .  A
N352       Mn378   2.209       .  S
N353        C358   1.359       .  A
N354        N355   1.312       .  A
N354       Mn356   2.167       .  S
N355        C357   1.346       .  A
Mn356      Cl380   2.514       .  S
C357        C440   1.477       .  S
C358        C454   1.489       .  S
N359        N360   1.321       .  A
N359        N365   1.317       .  A
N359       Mn367   2.205       .  S
N360        C368   1.356       .  A
N361        N363   1.314       .  A
N361        N362   1.323       .  A
N361       Mn379   2.215       .  S
N362        C369   1.359       .  A
N363        N364   1.318       .  A
N363       Mn367   2.187       .  S
N364        C369   1.349       .  A
N365        N366   1.315       .  A
N365       Mn379   2.190       .  S
N366        C368   1.348       .  A
Mn367      Cl380   2.566       .  S
C368        C485   1.474       .  S
C369        C499   1.486       .  S
N370        N371   1.321       .  A
N370        N376   1.318       .  A
N370       Mn378   2.213       .  S
N371        C381   1.354       .  A
N372        N373   1.319       .  A
N372        N374   1.314       .  A
N372       Mn379   2.203       .  S
N373        C382   1.353       .  A
N374        N375   1.321       .  A
N374       Mn378   2.195       .  S
N375        C382   1.355       .  A
N376        N377   1.321       .  A
N376       Mn379   2.213       .  S
N377        C381   1.355       .  A
Mn378      Cl380   2.568       .  S
Mn379      Cl380   2.527       .  S
C381        C401   1.487   1_556  S
C382        C384   1.488       .  S
C383        C384   1.408       .  A
C383        C388   1.401       .  A
C383        H390   1.084       .  S
C384        C385   1.418       .  A
C385        C386   1.404       .  A
C385        N392   1.438       .  S
C386        C387   1.399       .  A
C386        H391   1.084       .  S
C387        C388   1.409       .  A
C388        N389   1.432       .  S
N389        H393   1.045       .  S
N389        H394   1.045       .  S
N392        H395   1.046       .  S
N392        H396   1.046       .  S
C397        C398   1.400       .  A
C397        C402   1.409       .  A
C397        H404   1.083       .  S
C398        C399   1.407       .  A
C399        C400   1.401       .  A
C399        N406   1.431       .  S
C402        N403   1.437       .  S
N403        H407   1.046       .  S
N406        H409   1.046       .  S
N406        H410   1.045       .  S
C411        C412   1.407       .  A
C411        C416   1.397   1_545  A
C411        H418   1.084   1_545  S
C412        C413   1.421       .  A
C413        C414   1.400       .  A
C413        N420   1.428       .  S
C414        C415   1.403       .  A
C414        H419   1.084       .  S
C415        C416   1.415   1_545  A
C416        N417   1.434       .  S
N417        H421   1.041       .  S
N417        H422   1.046       .  S
N420        H423   1.045       .  S
N420        H424   1.040       .  S
C425        C426   1.401       .  A
C425        C430   1.401       .  A
C425        H432   1.084       .  S
C426        C427   1.412       .  A
C427        N434   1.438       .  S
C428        H433   1.084       .  S
C429        C430   1.412       .  A
C430        N431   1.438       .  S
N431        H435   1.046       .  S
N431        H436   1.046       .  S
N434        H437   1.044       .  S
C439        C440   1.403       .  A
C439        C444   1.401       .  A
C439        H446   1.083       .  S
C440        C441   1.419       .  A
C441        C442   1.401       .  A
C441        N448   1.439       .  S
C442        C443   1.394       .  A
C442        H447   1.084       .  S
C443        C444   1.405       .  A
C444        N445   1.432       .  S
N445        H449   1.045       .  S
N445        H450   1.046       .  S
N448        H451   1.045       .  S
N448        H452   1.046       .  S
C453        C454   1.405       .  A
C453        C458   1.393       .  A
C453        H460   1.083       .  S
C454        C455   1.416       .  A
C455        N462   1.437       .  S
C456        H461   1.083       .  S
C457        C458   1.413   1_554  A
C458        N459   1.439       .  S
N459        H463   1.046       .  S
N459        H464   1.041       .  S
N462        H465   1.046       .  S
C467        C468   1.404       .  A
C467        C472   1.398       .  A
C467        H474   1.084       .  S
C468        C469   1.410       .  A
C470        H475   1.084       .  S
C471        C472   1.410       .  A
C472        N473   1.439       .  S
N473        H477   1.046       .  S
N473        H478   1.046       .  S
N476        H479   1.044       .  S
N476        H480   1.045       .  S
C481        C482   1.394       .  A
C481        C486   1.395       .  A
C481        H488   1.084       .  S
C482        C483   1.410       .  A
C483        C484   1.402       .  A
C483        N490   1.438       .  S
C484        C485   1.402       .  A
C484        H489   1.084       .  S
C485        C486   1.420       .  A
C486        N487   1.433       .  S
N487        H491   1.044       .  S
N487        H492   1.045       .  S
N490        H493   1.044       .  S
N490        H494   1.046       .  S
C495        C496   1.398       .  A
C495        H502   1.081       .  S
C496        C497   1.411       .  A
C497        N504   1.438       .  S
C498        C499   1.402       .  A
C498        H503   1.083       .  S
C499        C500   1.419       .  A
C500        N501   1.438       .  S
N501        H505   1.046       .  S
N501        H506   1.045       .  S
N504        H507   1.045       .  S
N504        H508   1.046       .  S
C509        C514   1.410       .  A
C509        H516   1.083       .  S
C510        C511   1.417       .  A
C511        C512   1.390       .  A
C511        N518   1.435       .  S
C512        C513   1.398   1_556  A
C512        H517   1.084       .  S
C514        N515   1.437       .  S
N515        H519   1.045       .  S
N515        H520   1.046       .  S
N518        H521   1.045       .  S
N518        H522   1.042       .  S
C523        C524   1.404       .  A
C523        C528   1.416       .  A
C523        H530   1.081       .  S
C524        C525   1.409       .  A
C525        C526   1.401       .  A
C525        N532   1.439       .  S
C526        C527   1.407       .  A
C526        H531   1.083       .  S
C527        C528   1.417       .  A
C528        N529   1.436       .  S
N529        H533   1.046       .  S
N529        H534   1.045       .  S
N532        H535   1.045       .  S
N532        H536   1.046       .  S
C537        C538   1.398       .  A
C537        C542   1.399       .  A
C537        H544   1.084       .  S
C538        C539   1.412       .  A
C539        C540   1.394       .  A
C539        N546   1.433       .  S
C540        C541   1.400       .  A
C540        H545   1.084       .  S
C541        C542   1.411       .  A
C542        N543   1.434       .  S
N543        H547   1.046       .  S
N543        H548   1.046       .  S
