geometry optimzed in LAMMPS
_audit_creation_date              2020-11-30 
_audit_creation_method            'lammps2cif' 
_symmetry_space_group_name_H-M    'P1' 
_symmetry_Int_Tables_number       1 
_symmetry_cell_setting            triclinic 
loop_ 
_symmetry_equiv_pos_as_xyz 
  x,y,z 
_cell_length_a                    31.82415747 
_cell_length_b                    31.614883829139284 
_cell_length_c                    31.808818489171134 
_cell_angle_alpha                 90.56830179936166 
_cell_angle_beta                  89.87366649503097 
_cell_angle_gamma                 90.0348230061209 
loop_ 
_atom_site_label 
_atom_site_type_symbol 
_atom_site_fract_x 
_atom_site_fract_y 
_atom_site_fract_z 
_atom_site_charge 
O1          O  0.49128446  0.38837762  0.05954920    -0.75200
O2          O  0.49142561  0.43677038  0.11361059    -0.54100
C3          C  0.49004979  0.39855582  0.09849931     0.78500
O4          O  0.62592287  0.50173372  0.93675171    -0.59800
O5          O  0.58202453  0.50581732  0.88011307    -0.52800
C6          C  0.61893120  0.50216541  0.89728519     0.70600
O7          O  0.61626478  0.49120074  0.07026989    -0.74300
O8          O  0.56530891  0.49888416  0.12060535    -0.54900
C9          C  0.60375437  0.49203550  0.10834560     0.76600
O10         O  0.50490216  0.39037781  0.92434178    -0.59500
O11         O  0.51546469  0.44047705  0.87385625    -0.52600
C12         C  0.51317154  0.40169158  0.88669660     0.73200
Zr13       Zr  0.49459773  0.42209712  0.99259701     2.54700
O14         O  0.54015810  0.36033153  0.99438721    -0.80100
O15         O  0.42910351  0.38266742  0.98536099    -0.93500
Zr16       Zr  0.58915441  0.50057844  0.00168855     2.64700
O17         O  0.63458996  0.43852030  0.00131440    -0.98400
O18         O  0.64539820  0.55212597  0.01025801    -0.80500
O19         O  0.53962389  0.45966369  0.03870807    -0.83800
O20         O  0.54549836  0.46176212  0.95596003    -2.18600
O21         O  0.39054951  0.50763796  0.92220153    -0.67200
O22         O  0.44222822  0.50129674  0.87233882    -0.51800
C23         C  0.40326382  0.50100150  0.88459449     0.71500
O24         O  0.49714292  0.62511269  0.06495332    -0.60100
O25         O  0.49147466  0.57608294  0.11707919    -0.52100
C26         C  0.49027001  0.61438060  0.10292804     0.73300
O27         O  0.51096157  0.62757561  0.93170429    -0.71500
O28         O  0.50683030  0.58034142  0.87691384    -0.50200
C29         C  0.50644925  0.61839719  0.89277792     0.74700
O30         O  0.38128886  0.51834161  0.05754803    -0.66900
O31         O  0.42744179  0.51178346  0.11215429    -0.54100
C32         C  0.38994779  0.51569522  0.09674594     0.73100
Zr33       Zr  0.41839501  0.51757071  0.99139601     2.77500
O34         O  0.37876387  0.58323666  0.98616378    -0.97600
O35         O  0.35566859  0.47349406  0.98949031    -0.78400
Zr36       Zr  0.51496559  0.59420895  0.99851388     2.70100
O37         O  0.48759737  0.66611463  0.99797024    -0.79700
O38         O  0.58463412  0.62512515  0.00602930    -0.98800
Zr39       Zr  0.49840965  0.50691987  0.08070506     2.21500
Zr40       Zr  0.50969687  0.50972604  0.91077326     2.11100
O41         O  0.46790461  0.55725233  0.95312066    -2.47500
O42         O  0.46338082  0.55607261  0.03625208    -0.79500
O43         O  0.45872051  0.47011685  0.94962912    -0.71700
O44         O  0.54999242  0.54781661  0.04398203    -2.32600
O45         O  0.45298061  0.46801052  0.03433208    -2.28800
O46         O  0.55591584  0.54878819  0.95633596    -0.73400
H47         H  0.56348995  0.44303747  0.93995141     0.78600
H48         H  0.56777129  0.56333453  0.06329859     0.79700
H49         H  0.45171178  0.57623453  0.93598667     0.81900
H50         H  0.43268318  0.45162019  0.04985846     0.79500
H51         H  0.67148852  0.53507703  0.00997482     0.42500
H52         H  0.58561377  0.64763581  0.98463211     0.41500
H53         H  0.45682985  0.66273319  0.99478549     0.41200
H54         H  0.39887169  0.60566239  0.99456550     0.39100
H55         H  0.36552226  0.44573829  0.97868920     0.42200
H56         H  0.42817201  0.36379102  0.00999453     0.37000
H57         H  0.56476564  0.36961019  0.01110860     0.43100
H58         H  0.62634997  0.42185063  0.97615806     0.39600
H59         H  0.37453532  0.58739300  0.95565434     0.44500
H60         H  0.43370075  0.36335961  0.96109900     0.43200
H61         H  0.66295872  0.44946655  0.99464108     0.43300
H62         H  0.58357738  0.64056786  0.03324964     0.43700
N63         N  0.21533300  0.51498968  0.22318384    -0.03400
C64         C  0.21180540  0.50671002  0.26539091    -0.00800
C65         C  0.25031566  0.50797680  0.28502864    -0.23700
C66         C  0.27913481  0.51720928  0.25522270    -0.23900
C67         C  0.25772011  0.52202861  0.21783493    -0.00900
H68         H  0.25656016  0.50329991  0.31811453     0.12900
H69         H  0.31270433  0.51960290  0.26017172     0.12900
N70         N  0.79189373  0.47099282  0.21010381    -0.03400
C71         C  0.80049236  0.45855198  0.25010364    -0.00800
C72         C  0.76522801  0.44294971  0.26990146    -0.23700
C73         C  0.73310758  0.44625373  0.24218576    -0.23900
C74         C  0.74961304  0.46359425  0.20611296    -0.00900
H75         H  0.76257440  0.43351609  0.30243339     0.12900
H76         H  0.70043493  0.43896388  0.24835239     0.12900
N77         N  0.20961487  0.47330764  0.80120382    -0.03400
C78         C  0.24852203  0.45473077  0.80342319    -0.00800
C79         C  0.25295730  0.42306461  0.77356446    -0.23700
C80         C  0.21692503  0.42238928  0.75084087    -0.23900
C81         C  0.19154761  0.45390078  0.76709810    -0.00900
H82         H  0.28104419  0.40498032  0.76660837     0.12900
H83         H  0.21194497  0.40464069  0.72198493     0.12900
N84         N  0.80855803  0.47643628  0.79862570    -0.03400
C85         C  0.77001215  0.46009306  0.80861580    -0.00800
C86         C  0.75640662  0.43123561  0.77899507    -0.23700
C87         C  0.78623326  0.42990663  0.74857711    -0.23900
C88         C  0.81752024  0.45796108  0.76041687    -0.00900
H89         H  0.72592477  0.41604912  0.77766476     0.12900
H90         H  0.78304418  0.41379939  0.71856345     0.12900
N91         N  0.00640072  0.49722403  0.07869667    -0.36500
N92         N  0.07443433  0.50112591  0.01523679    -0.57100
N93         N  0.01050891  0.50274644  0.94728361    -0.36500
N94         N  0.94250256  0.49895619  0.01061504    -0.57100
C95         C  0.04021480  0.50099645  0.10488024     0.27100
C96         C  0.97059554  0.49753549  0.10243894     0.27100
C97         C  0.04603078  0.49788428  0.92367412     0.27100
C98         C  0.97669478  0.49863400  0.92126574     0.27100
C99         C  0.09863626  0.50296370  0.05047503     0.35700
C100        C  0.10073356  0.50168012  0.98141636     0.35700
C101        C  0.91609156  0.49674800  0.04423345     0.35700
C102        C  0.91830015  0.49983371  0.97536869     0.35700
C103        C  0.02542819  0.50322759  0.14592649    -0.21800
C104        C  0.98203888  0.50071369  0.14442319    -0.21800
C105        C  0.03435300  0.49173524  0.88201743    -0.21800
C106        C  0.99117466  0.49283924  0.88045226    -0.21800
C107        C  0.14061052  0.50476007  0.03867430    -0.22800
C108        C  0.14188518  0.50426826  0.99541781    -0.22800
C109        C  0.87488640  0.49677861  0.03004532    -0.22800
C110        C  0.87628235  0.49859682  0.98687990    -0.22800
C111        C  0.08406449  0.50277550  0.09327853    -0.18200
C112        C  0.92780589  0.49515920  0.08773102    -0.18200
C113        C  0.93300844  0.49871137  0.93275307    -0.18200
C114        C  0.08884192  0.49834537  0.93800026    -0.18200
H115        H  0.04395017  0.50651462  0.17426115     0.14700
H116        H  0.96126740  0.50171796  0.17139056     0.14700
H117        H  0.05467615  0.48639847  0.85518597     0.14700
H118        H  0.97262708  0.48882966  0.85223242     0.14700
H119        H  0.16779461  0.50602390  0.05901202     0.13000
H120        H  0.17013728  0.50527082  0.97646276     0.13000
H121        H  0.84650692  0.49554570  0.04879827     0.13000
H122        H  0.84922113  0.49831690  0.96634858     0.13000
H123        H  0.00764733  0.49273330  0.04652899     0.26300
H124        H  0.00945093  0.51021061  0.97898026     0.26300
O125        O  0.07192344  0.49629056  0.39641190    -0.75200
O126        O  0.12063527  0.49769986  0.44922412    -0.54100
C127        C  0.10959356  0.49692049  0.40989017     0.78500
O128        O  0.93393158  0.62310066  0.49365221    -0.59800
O129        O  0.87879456  0.57649268  0.49271608    -0.52800
C130        C  0.89498909  0.61416763  0.48957428     0.70600
O131        O  0.06697325  0.61789619  0.51731003    -0.74300
O132        O  0.11768068  0.56689224  0.52210553    -0.54900
C133        C  0.10488820  0.60587959  0.52266701     0.76600
O134        O  0.93692637  0.49157535  0.38657378    -0.59500
O135        O  0.88037013  0.49904126  0.43050490    -0.52600
C136        C  0.89745934  0.49336850  0.39392229     0.73200
Zr137      Zr  0.00228673  0.49685053  0.42328905     2.54700
O138        O  0.00289378  0.54973109  0.36811889    -0.80100
O139        O  0.00992988  0.43652442  0.37567102    -0.93500
Zr140      Zr  0.99906354  0.58793117  0.50601064     2.64700
O141        O  0.01386729  0.63557247  0.44816873    -0.98400
O142        O  0.99063434  0.64265110  0.55973581    -0.80500
O143        O  0.04295337  0.54192946  0.46694513    -0.83800
O144        O  0.95907620  0.54467536  0.46021955    -2.18600
O145        O  0.92346585  0.38510645  0.50337931    -0.67200
O146        O  0.87431924  0.43633002  0.49089600    -0.51800
C147        C  0.88650102  0.39732511  0.49373852     0.71500
O148        O  0.05245121  0.50229270  0.63180881    -0.60100
O149        O  0.10884944  0.49574821  0.58760526    -0.52100
C150        C  0.09176071  0.49744158  0.62461717     0.73300
O151        O  0.91872901  0.53811102  0.60596322    -0.71500
O152        O  0.87180655  0.50107143  0.56880822    -0.50200
C153        C  0.88532630  0.51607531  0.60415707     0.74700
O154        O  0.05814655  0.37919620  0.51527695    -0.66900
O155        O  0.11178074  0.42735255  0.51937024    -0.54100
C156        C  0.09704282  0.38904964  0.51777343     0.73100
Zr157      Zr  0.99177535  0.41486463  0.51286478     2.77500
O158        O  0.98562842  0.36758013  0.57251047    -0.97600
O159        O  0.99180479  0.35869455  0.45997479    -0.78400
Zr160      Zr  0.98662957  0.50575439  0.59538928     2.70100
O161        O  0.96671793  0.44796149  0.64134493    -0.79700
O162        O  0.98965006  0.54858757  0.65940539    -0.98800
Zr163      Zr  0.07947189  0.49859592  0.51597422     2.21500
Zr164      Zr  0.91052516  0.50485724  0.50149526     2.11100
O165        O  0.94665342  0.46050206  0.55115986    -2.47500
O166        O  0.03145137  0.45874247  0.55809799    -0.79500
O167        O  0.95545396  0.45702886  0.46415622    -0.71700
O168        O  0.03470616  0.54562111  0.55523821    -2.32600
O169        O  0.03900954  0.45367382  0.47065250    -2.28800
O170        O  0.95094507  0.54967295  0.54729813    -0.73400
H171        H  0.94448737  0.56162113  0.43989651     0.78600
H172        H  0.05073014  0.56315982  0.57432362     0.79700
H173        H  0.92721456  0.44374948  0.56735581     0.81900
H174        H  0.05697240  0.43477145  0.45477416     0.79500
H175        H  0.97724832  0.62801329  0.58366629     0.42500
H176        H  0.97809912  0.57646543  0.65150028     0.41500
H177        H  0.99238380  0.43044823  0.64346605     0.41200
H178        H  0.98893979  0.33889722  0.56015189     0.39100
H179        H  0.00788554  0.37041492  0.43611115     0.42200
H180        H  0.00774299  0.44869959  0.34719915     0.37000
H181        H  0.02910438  0.56600437  0.37269415     0.43100
H182        H  0.99922574  0.62283960  0.42372556     0.39600
H183        H  0.01169248  0.37222901  0.58886148     0.44500
H184        H  0.98373545  0.42000466  0.37915554     0.43200
H185        H  0.99787791  0.66166077  0.45478804     0.43300
H186        H  0.96815166  0.53619631  0.67818197     0.43700
N187        N  0.44583652  0.80124262  0.19345193    -0.03400
C188        C  0.42948198  0.81097823  0.23219623    -0.00800
C189        C  0.40052825  0.78092496  0.24443027    -0.23700
C190        C  0.39914845  0.75116805  0.21351318    -0.23900
C191        C  0.42741499  0.76347171  0.18298535    -0.00900
H192        H  0.38578254  0.77817174  0.27498649     0.12900
H193        H  0.38328308  0.72096590  0.21572389     0.12900
N194        N  0.48857111  0.21135768  0.20485082    -0.03400
C195        C  0.49086169  0.20505455  0.24732823    -0.00800
C196        C  0.48471255  0.24221901  0.26954078    -0.23700
C197        C  0.47917489  0.27310874  0.24080481    -0.23900
C198        C  0.48210479  0.25407232  0.20172495    -0.00900
H199        H  0.48551864  0.24644303  0.30335169     0.12900
H200        H  0.47545687  0.30654268  0.24752380     0.12900
N201        N  0.53629299  0.21254829  0.78482965    -0.03400
C202        C  0.55364402  0.25166064  0.79209256    -0.00800
C203        C  0.58120270  0.26274326  0.76054316    -0.23700
C204        C  0.58076522  0.23067130  0.73193827    -0.23900
C205        C  0.55288178  0.20084206  0.74664602    -0.00900
H206        H  0.59699701  0.29283567  0.75691490     0.12900
H207        H  0.59574901  0.23098851  0.70134583     0.12900
N208        N  0.45416702  0.79709949  0.78566638    -0.03400
C209        C  0.44673790  0.75665189  0.79826187    -0.00800
C210        C  0.42235915  0.73497034  0.76958350    -0.23700
C211        C  0.41529229  0.76176425  0.73725023    -0.23900
C212        C  0.43524081  0.79953691  0.74701656    -0.00900
H213        H  0.41450542  0.70164653  0.77008763     0.12900
H214        H  0.40147409  0.75267803  0.70744966     0.12900
N215        N  0.49541545  0.00563549  0.05603357    -0.36500
N216        N  0.49062711  0.94009878  0.98882613    -0.57100
N217        N  0.49465887  0.00730833  0.92476388    -0.36500
N218        N  0.50030900  0.07265590  0.99184616    -0.57100
C219        C  0.48936571  0.97071214  0.08012042     0.27100
C220        C  0.49424676  0.04042009  0.08170585     0.27100
C221        C  0.49695876  0.97226446  0.89950337     0.27100
C222        C  0.50423146  0.04174610  0.90106015     0.27100
C223        C  0.48461032  0.91480523  0.02268839     0.35700
C224        C  0.48549220  0.91561861  0.95377257     0.35700
C225        C  0.49932713  0.09782239  0.02683000     0.35700
C226        C  0.50234961  0.09838640  0.95782883     0.35700
C227        C  0.48544808  0.98357420  0.12177482    -0.21800
C228        C  0.48831264  0.02709543  0.12275022    -0.21800
C229        C  0.50740306  0.98478367  0.85916181    -0.21800
C230        C  0.51219086  0.02816874  0.86016416    -0.21800
C231        C  0.47614304  0.87393971  0.00885373    -0.22800
C232        C  0.47655440  0.87448246  0.96557939    -0.22800
C233        C  0.50079841  0.13983596  0.01472533    -0.22800
C234        C  0.50244211  0.14018472  0.97145447    -0.22800
C235        C  0.48529514  0.92761447  0.06603955    -0.18200
C236        C  0.49717469  0.08403105  0.06965941    -0.18200
C237        C  0.50590161  0.08521339  0.91465597    -0.18200
C238        C  0.48926656  0.92921715  0.91113266    -0.18200
H239        H  0.48003774  0.96374415  0.14879676     0.14700
H240        H  0.48547619  0.04670418  0.15068716     0.14700
H241        H  0.51167106  0.96464341  0.83177210     0.14700
H242        H  0.52082832  0.04746423  0.83358972     0.14700
H243        H  0.46969939  0.84653340  0.02794793     0.13000
H244        H  0.47074513  0.84753482  0.94515318     0.13000
H245        H  0.50081406  0.16758704  0.03490608     0.13000
H246        H  0.50394038  0.16820992  0.95225131     0.13000
H247        H  0.50098770  0.00561964  0.02403785     0.26300
H248        H  0.48398448  0.00793534  0.95554163     0.26300
N249        N  0.20802814  0.79333448  0.53164984    -0.03400
C250        C  0.20139431  0.75593162  0.55188784    -0.00800
C251        C  0.23380909  0.74646835  0.57888590    -0.23700
C252        C  0.26267122  0.77776791  0.57474435    -0.23900
C253        C  0.24685227  0.80538053  0.54547517    -0.00900
H254        H  0.23796199  0.71747702  0.59622675     0.12900
H255        H  0.29392598  0.77805650  0.58813189     0.12900
N256        N  0.79847549  0.20889988  0.45499818    -0.03400
C257        C  0.75760671  0.19709223  0.44967089    -0.00800
C258        C  0.73509225  0.22738839  0.42865057    -0.23700
C259        C  0.76198218  0.25987229  0.42145304    -0.23900
C260        C  0.80046480  0.24862848  0.43821278    -0.00900
H261        H  0.70167383  0.22718593  0.42232580     0.12900
H262        H  0.75292332  0.29056684  0.40974394     0.12900
N263        N  0.22071156  0.21277792  0.51401731    -0.03400
C264        C  0.26296731  0.21016193  0.50530359    -0.00800
C265        C  0.28247953  0.24885103  0.50987766    -0.23700
C266        C  0.25245645  0.27694096  0.52131574    -0.23900
C267        C  0.21513794  0.25482881  0.52394720    -0.00900
H268        H  0.31556277  0.25569676  0.50568426     0.12900
H269        H  0.25705965  0.31058177  0.52610340     0.12900
N270        N  0.79623321  0.80433104  0.46028480    -0.03400
C271        C  0.80341796  0.76305083  0.44903025    -0.00800
C272        C  0.77132171  0.74701662  0.42473907    -0.23700
C273        C  0.74246567  0.77829480  0.42122559    -0.23900
C274        C  0.75740948  0.81284535  0.44372712    -0.00900
H275        H  0.76774662  0.71469387  0.41374962     0.12900
H276        H  0.71139414  0.77444578  0.40791962     0.12900
N277        N  0.00584315  0.94116163  0.50172827    -0.36500
N278        N  0.07396396  0.00560105  0.50244468    -0.57100
N279        N  0.01003989  0.07294619  0.49318026    -0.36500
N280        N  0.94214311  0.00831539  0.49145632    -0.57100
C281        C  0.04012103  0.91532927  0.50239288     0.27100
C282        C  0.97107639  0.91671945  0.49506716     0.27100
C283        C  0.04515124  0.09748209  0.49700685     0.27100
C284        C  0.97588826  0.09881444  0.49044664     0.27100
C285        C  0.09769131  0.97044985  0.50902341     0.35700
C286        C  0.09983723  0.03984845  0.50549905     0.35700
C287        C  0.91608289  0.97420510  0.48932270     0.35700
C288        C  0.91810613  0.04351214  0.48665087     0.35700
C289        C  0.02667052  0.87387196  0.49699762    -0.21800
C290        C  0.98358053  0.87472107  0.49260829    -0.21800
C291        C  0.03293720  0.13960985  0.49602396    -0.21800
C292        C  0.98970271  0.14043119  0.49206845    -0.21800
C293        C  0.13892525  0.98262229  0.51637350    -0.22800
C294        C  0.14028992  0.02613020  0.51405021    -0.22800
C295        C  0.87523674  0.98800363  0.48309136    -0.22800
C296        C  0.87649377  0.03147166  0.48144508    -0.22800
C297        C  0.08328726  0.92739267  0.50826465    -0.18200
C298        C  0.92826638  0.93061076  0.49097034    -0.18200
C299        C  0.93251547  0.08650843  0.48649661    -0.18200
C300        C  0.08795339  0.08348848  0.50165869    -0.18200
H301        H  0.04592239  0.84567205  0.49608516     0.14700
H302        H  0.96379358  0.84725163  0.48786929     0.14700
H303        H  0.05302722  0.16716769  0.49820410     0.14700
H304        H  0.97059346  0.16869088  0.49073957     0.14700
H305        H  0.16540969  0.96231068  0.52300331     0.13000
H306        H  0.16798140  0.04548409  0.51872726     0.13000
H307        H  0.84731336  0.96877263  0.47948013     0.13000
H308        H  0.84966312  0.05183815  0.47654445     0.13000
H309        H  0.00599734  0.97326730  0.50809742     0.26300
H310        H  0.00948432  0.04038534  0.49107121     0.26300
O311        O  0.38524948  0.93305953  0.48248469    -0.75200
O312        O  0.42869721  0.87642915  0.49214866    -0.54100
C313        C  0.39199281  0.89387103  0.48932062     0.78500
O314        O  0.52656433  0.06054839  0.37487092    -0.59800
O315        O  0.51544106  0.11294949  0.42394606    -0.52800
C316        C  0.52083963  0.09920606  0.38570402     0.70600
O317        O  0.50858899  0.92489363  0.37173927    -0.74300
O318        O  0.49027672  0.87457559  0.41981780    -0.54900
C319        C  0.49560687  0.88803698  0.38170693     0.76600
O320        O  0.39394075  0.06777825  0.48557699    -0.59500
O321        O  0.44566285  0.11723726  0.49511897    -0.52600
C322        C  0.40657368  0.10552202  0.49182639     0.73200
Zr323      Zr  0.42256889  0.99872103  0.48105436     2.54700
O324        O  0.38346845  0.00307812  0.41551101    -0.80100
O325        O  0.36104149  0.00735095  0.52606899    -0.93500
Zr326      Zr  0.51854430  0.99200666  0.40603291     2.64700
O327        O  0.47088171  0.99725592  0.34637529    -0.98400
O328        O  0.58227135  0.98328390  0.36436963    -0.80500
O329        O  0.46629507  0.95309505  0.44206653    -0.83800
O330        O  0.47269451  0.03793859  0.44349445    -2.18600
O331        O  0.50324266  0.06138308  0.61080086    -0.67200
O332        O  0.51666832  0.11349457  0.56330226    -0.51800
C333        C  0.51186773  0.09965238  0.60139064     0.71500
O334        O  0.60374892  0.91365801  0.52765654    -0.60100
O335        O  0.56764594  0.86886315  0.48657957    -0.52100
C336        C  0.60252906  0.88171568  0.50301326     0.73300
O337        O  0.63008686  0.05021681  0.49316063    -0.71500
O338        O  0.58546597  0.10700172  0.49040529    -0.50200
C339        C  0.62242186  0.08974127  0.48932396     0.74700
O340        O  0.48870770  0.92562523  0.60910858    -0.66900
O341        O  0.49036584  0.87229893  0.55974305    -0.54100
C342        C  0.48651231  0.88671006  0.59798925     0.73100
Zr343      Zr  0.49808624  0.99341601  0.57759951     2.77500
O344        O  0.54933892  0.98572938  0.63378491    -0.97600
O345        O  0.43651466  0.00053146  0.62267057    -0.78400
Zr346      Zr  0.59332383  0.98459594  0.50241164     2.70100
O347        O  0.64383194  0.99053819  0.55962360    -0.79700
O348        O  0.65001485  0.96370575  0.45509522    -0.98800
Zr349      Zr  0.50003092  0.90709798  0.49056859     2.21500
Zr350      Zr  0.51359813  0.07761681  0.49323281     2.11100
O351        O  0.54990768  0.03183820  0.54080830    -2.47500
O352        O  0.54182778  0.94645590  0.53991487    -0.79500
O353        O  0.46227337  0.03800869  0.53070271    -0.71700
O354        O  0.55304205  0.94585454  0.45243667    -2.32600
O355        O  0.45614029  0.95464058  0.52989496    -2.28800
O356        O  0.55905969  0.03051682  0.45502868    -0.73400
H357        H  0.45783976  0.05630275  0.42454030     0.78600
H358        H  0.57078260  0.92737974  0.43583658     0.79700
H359        H  0.56737215  0.04793778  0.55990462     0.81900
H360        H  0.43535339  0.93958965  0.54607750     0.79500
H361        H  0.59815478  0.00986311  0.36885192     0.42500
H362        H  0.64140007  0.97415558  0.42720523     0.41500
H363        H  0.63923888  0.01900171  0.57204188     0.41200
H364        H  0.57080858  0.00770883  0.62843550     0.39100
H365        H  0.41795521  0.02044207  0.60767252     0.42200
H366        H  0.36609227  0.98855686  0.55022962     0.37000
H367        H  0.38379606  0.97393265  0.40383643     0.43100
H368        H  0.45258515  0.02180023  0.35283261     0.39600
H369        H  0.53455935  0.99552256  0.65951652     0.44500
H370        H  0.33743130  0.99420505  0.51048415     0.43200
H371        H  0.48863422  0.00656634  0.32259138     0.43300
H372        H  0.67411429  0.98179881  0.46323326     0.43700
C373        C  0.72555443  0.84311476  0.46018817    -0.06000
C374        C  0.71556717  0.84149149  0.50319054    -0.17100
C375        C  0.67520981  0.85220504  0.51796084     0.11200
C376        C  0.64349964  0.86400044  0.48921854    -0.05900
C377        C  0.65417660  0.86769823  0.44662731    -0.17200
C378        C  0.69491589  0.85901136  0.43224091     0.11200
S379        S  0.66525013  0.84743682  0.57349579    -0.32100
S380        S  0.70551878  0.86628612  0.37704132    -0.32100
H381        H  0.74943223  0.86865949  0.38139052     0.29200
H382        H  0.62262185  0.83650548  0.56930595     0.29200
H383        H  0.73789494  0.82809951  0.52494875     0.19800
H384        H  0.63099141  0.87894564  0.42448745     0.19800
C385        C  0.82905631  0.83586008  0.46831197    -0.06000
C386        C  0.83235190  0.85632223  0.50770574    -0.17100
C387        C  0.86445051  0.88630610  0.51635040     0.11200
C388        C  0.89421262  0.89716916  0.48483561    -0.05900
C389        C  0.89069007  0.87682236  0.44551310    -0.17200
C390        C  0.85885109  0.84692399  0.43690927     0.11200
S391        S  0.86543477  0.90971875  0.56825877    -0.32100
S392        S  0.85798379  0.82445887  0.38465769    -0.32100
H393        H  0.81412433  0.82263125  0.38117843     0.29200
H394        H  0.90843235  0.91976986  0.56878848     0.29200
H395        H  0.81009974  0.84860990  0.53220125     0.19800
H396        H  0.91279048  0.88482957  0.42087317     0.19800
C397        C  0.37123390  0.13528111  0.49680207    -0.06000
C398        C  0.35459013  0.15319914  0.46031803    -0.17100
C399        C  0.31456480  0.17182431  0.46018794     0.11200
C400        C  0.29002027  0.17301808  0.49743141    -0.05900
C401        C  0.30559333  0.15274048  0.53317700    -0.17200
C402        C  0.34550924  0.13379194  0.53325364     0.11200
S403        S  0.29757947  0.19585195  0.41183492    -0.32100
S404        S  0.36126522  0.10774933  0.58105803    -0.32100
H405        H  0.40384520  0.10163886  0.57133241     0.29200
H406        H  0.25661183  0.20635361  0.42451394     0.29200
H407        H  0.37249661  0.15168465  0.43130612     0.19800
H408        H  0.28790475  0.15453389  0.56231143     0.19800
C409        C  0.18871886  0.17928826  0.51173199    -0.06000
C410        C  0.18297738  0.15564427  0.47437329    -0.17100
C411        C  0.15052347  0.12515682  0.47005565     0.11200
C412        C  0.12260648  0.11694693  0.50394413    -0.05900
C413        C  0.12888515  0.13997971  0.54153273    -0.17200
C414        C  0.16149677  0.17016453  0.54587585     0.11200
S415        S  0.14651140  0.09772212  0.42026964    -0.32100
S416        S  0.16876137  0.19371278  0.59694506    -0.32100
H417        H  0.21288367  0.19407660  0.59402430     0.29200
H418        H  0.10303464  0.09019192  0.42206135     0.29200
H419        H  0.20336875  0.16155241  0.44786075     0.19800
H420        H  0.10872163  0.13362864  0.56822400     0.19800
C421        C  0.65994673  0.11568167  0.48118464    -0.06000
C422        C  0.67176349  0.14708066  0.51008681    -0.17100
C423        C  0.70890096  0.17021867  0.50442995     0.11200
C424        C  0.73496435  0.16180543  0.46910457    -0.05900
C425        C  0.72466157  0.12817378  0.44215469    -0.17200
C426        C  0.68728050  0.10557034  0.44734154     0.11200
S427        S  0.71886593  0.21306869  0.54100213    -0.32100
S428        S  0.67464797  0.06651241  0.40755623    -0.32100
H429        H  0.63087250  0.07218994  0.40946701     0.29200
H430        H  0.76057083  0.22091519  0.52916409     0.29200
H431        H  0.65174003  0.15395230  0.53690056     0.19800
H432        H  0.74343478  0.12260633  0.41414940     0.19800
C433        C  0.83355892  0.18048768  0.46378279    -0.06000
C434        C  0.83961045  0.16414962  0.50434245    -0.17100
C435        C  0.87220890  0.13502650  0.51308122     0.11200
C436        C  0.89972531  0.12098053  0.48057572    -0.05900
C437        C  0.89371880  0.13753458  0.44019490    -0.17200
C438        C  0.86100608  0.16619963  0.43141698     0.11200
S439        S  0.87625231  0.11615156  0.56620773    -0.32100
S440        S  0.85439519  0.18118056  0.37741286    -0.32100
H441        H  0.81026091  0.18195014  0.37851594     0.29200
H442        H  0.91914822  0.10579829  0.56467822     0.29200
H443        H  0.81871254  0.17397981  0.52945131     0.19800
H444        H  0.91377878  0.12665160  0.41473678     0.19800
C445        C  0.27653114  0.83291157  0.52326715    -0.06000
C446        C  0.30225526  0.81410615  0.49207332    -0.17100
C447        C  0.34029826  0.83275919  0.47958010     0.11200
C448        C  0.35342223  0.87035744  0.49964112    -0.05900
C449        C  0.32710305  0.88936079  0.53003452    -0.17200
C450        C  0.28898156  0.87138678  0.54172922     0.11200
S451        S  0.37052837  0.80698907  0.43874374    -0.32100
S452        S  0.25936515  0.89732764  0.58292562    -0.32100
H453        H  0.22011036  0.88117140  0.57095344     0.29200
H454        H  0.39025173  0.84364565  0.42368838     0.29200
H455        H  0.29359372  0.78364800  0.47881799     0.19800
H456        H  0.33679294  0.91834800  0.54563548     0.19800
C457        C  0.11543926  0.89223471  0.51426305    -0.06000
C458        C  0.14415167  0.88192968  0.48188128    -0.17100
C459        C  0.17359997  0.84857205  0.48579795     0.11200
C460        C  0.17478259  0.82401136  0.52289039    -0.05900
C461        C  0.14558776  0.83406684  0.55487896    -0.17200
C462        C  0.11689133  0.86782391  0.55134870     0.10300
S463        S  0.20821871  0.83870790  0.44197599    -0.32100
S464        S  0.08367531  0.87896539  0.59607111    -0.32100
H465        H  0.08147712  0.92289146  0.58999712     0.29200
H466        H  0.21762301  0.79677695  0.45240069     0.29200
H467        H  0.14349724  0.89997757  0.45311738     0.19800
H468        H  0.14658805  0.81664462  0.58400309     0.19800
C469        C  0.44703496  0.82815529  0.71203012    -0.06000
C470        C  0.48987327  0.83636360  0.70518438    -0.17100
C471        C  0.50442011  0.85161955  0.66641299     0.11200
C472        C  0.47584529  0.85855415  0.63315671    -0.05900
C473        C  0.43304899  0.85123911  0.64025075    -0.17200
C474        C  0.41827273  0.83688131  0.67907261     0.11200
S475        S  0.55991482  0.86181607  0.66119068    -0.32100
S476        S  0.36201161  0.83092676  0.68410199    -0.32100
H477        H  0.36071137  0.83174953  0.72809830     0.29200
H478        H  0.56123975  0.85828989  0.61712144     0.29200
H479        H  0.51249514  0.82888931  0.72941423     0.19800
H480        H  0.41054710  0.85907177  0.61597442     0.19800
C481        C  0.46443800  0.83224026  0.81416938    -0.06000
C482        C  0.50439316  0.83504559  0.83300571    -0.17100
C483        C  0.51403830  0.86669289  0.86344246     0.11200
C484        C  0.48301848  0.89653643  0.87623073    -0.05900
C485        C  0.44334179  0.89376234  0.85722252    -0.17200
C486        C  0.43355383  0.86198706  0.82743941     0.11200
S487        S  0.56621514  0.86656738  0.88537049    -0.32100
S488        S  0.37970204  0.85922142  0.81058216    -0.32100
H489        H  0.37725027  0.81484953  0.81040323     0.29200
H490        H  0.56704114  0.90930879  0.89779893     0.29200
H491        H  0.52817467  0.81211646  0.82417021     0.19800
H492        H  0.41895977  0.91562193  0.86714496     0.19800
C493        C  0.53427325  0.17129712  0.71553998    -0.06000
C494        C  0.50931653  0.18888344  0.68351854    -0.17100
C495        C  0.50165825  0.16722733  0.64551953     0.11200
C496        C  0.51951832  0.12689805  0.63898327    -0.05900
C497        C  0.54361742  0.10906099  0.67162708    -0.17200
C498        C  0.55141447  0.13088632  0.70940995     0.11200
S499        S  0.46969189  0.19313652  0.60684457    -0.32100
S500        S  0.58556224  0.10836082  0.74855629    -0.32100
H501        H  0.59357603  0.07004153  0.72715971     0.29200
H502        H  0.45175702  0.15608541  0.59022993     0.29200
H503        H  0.49744138  0.22081458  0.68738293     0.19800
H504        H  0.55738674  0.07806626  0.66699767     0.19800
C505        C  0.52648737  0.18235696  0.81810265    -0.06000
C506        C  0.55764439  0.17304992  0.84810753    -0.17100
C507        C  0.55216209  0.14153502  0.87878654     0.11200
C508        C  0.51377222  0.11894598  0.88153669    -0.05900
C509        C  0.48230289  0.12854353  0.85195786    -0.17200
C510        C  0.48825839  0.15922511  0.82027503     0.11200
S511        S  0.59604050  0.13088239  0.91284898    -0.32100
S512        S  0.44526980  0.16691565  0.78437021    -0.32100
H513        H  0.46348679  0.19839532  0.75985739     0.29200
H514        H  0.58766854  0.08754132  0.91771204     0.29200
H515        H  0.58742661  0.18957397  0.84655828     0.19800
H516        H  0.45274532  0.11158812  0.85334722     0.19800
C517        C  0.51500857  0.12756121  0.34967900    -0.06000
C518        C  0.47468489  0.12821851  0.33193950    -0.17100
C519        C  0.46723033  0.14688020  0.29296982     0.11200
C520        C  0.50039010  0.16638312  0.27100182    -0.05900
C521        C  0.54130914  0.16333724  0.28744491    -0.17200
C522        C  0.54894737  0.14412003  0.32638350     0.11200
S523        S  0.41401880  0.14791890  0.27395147    -0.32100
S524        S  0.60223901  0.14308280  0.34538178    -0.32100
H525        H  0.59178753  0.14239304  0.38834357     0.29200
H526        H  0.42571597  0.14905941  0.23137295     0.29200
H527        H  0.44877229  0.11331951  0.34832710     0.19800
H528        H  0.56689195  0.17947005  0.27174098     0.19800
C529        C  0.49625422  0.11763217  0.10437040    -0.06000
C530        C  0.45996146  0.14248638  0.10998684    -0.17100
C531        C  0.45655430  0.17295911  0.14259709     0.11200
C532        C  0.49032144  0.17963362  0.17108518    -0.05900
C533        C  0.52632889  0.15424713  0.16597480    -0.17200
C534        C  0.52998556  0.12426444  0.13285332     0.11200
S535        S  0.40710156  0.20039025  0.14692570    -0.32100
S536        S  0.57881518  0.09567363  0.12854590    -0.32100
H537        H  0.57699515  0.08846616  0.08492292     0.29200
H538        H  0.40965460  0.21018526  0.18996552     0.29200
H539        H  0.43358229  0.13758753  0.08900895     0.19800
H540        H  0.55238969  0.15866239  0.18741071     0.19800
C541        C  0.44903588  0.83778094  0.26542456    -0.06000
C542        C  0.49162651  0.83188280  0.27554207    -0.17100
C543        C  0.50779736  0.84527644  0.31471684     0.11200
C544        C  0.48047205  0.86318124  0.34527446    -0.05900
C545        C  0.43840849  0.87014938  0.33442994    -0.17200
C546        C  0.42285713  0.85893481  0.29470877     0.11200
S547        S  0.56337999  0.83883171  0.32369583    -0.32100
S548        S  0.36927612  0.87201759  0.28127977    -0.32100
H549        H  0.36103013  0.89790395  0.31656717     0.29200
H550        H  0.56208953  0.84268910  0.36773136     0.29200
H551        H  0.51196135  0.81518915  0.25362743     0.19800
H552        H  0.41812231  0.88656010  0.35659587     0.19800
C553        C  0.47671995  0.89407257  0.09890726    -0.06000
C554        C  0.43484772  0.88577449  0.11017504    -0.17100
C555        C  0.42442129  0.85564806  0.14096217     0.11200
C556        C  0.45637064  0.83306248  0.16213436    -0.05900
C557        C  0.49837780  0.84121158  0.15097071    -0.17200
C558        C  0.50881322  0.87096044  0.11953219     0.11200
S559        S  0.36982937  0.84653804  0.15325757    -0.32100
S560        S  0.56369710  0.87824106  0.10754571    -0.32100
H561        H  0.55833113  0.89043105  0.06557271     0.29200
H562        H  0.35344436  0.86541011  0.11692722     0.29200
H563        H  0.41012322  0.90329453  0.09481011     0.19800
H564        H  0.52317601  0.82397130  0.16653020     0.19800
C565        C  0.85860832  0.36217467  0.48180379    -0.06000
C566        C  0.85150870  0.35604073  0.43878548    -0.17100
C567        C  0.83788162  0.31698589  0.42287857     0.11200
C568        C  0.82962971  0.28306694  0.45066280    -0.05900
C569        C  0.83748041  0.28905474  0.49370746    -0.17200
C570        C  0.85181049  0.32805310  0.50944843     0.11200
S571        S  0.83163518  0.31274255  0.36657981    -0.32100
S572        S  0.86068313  0.33267796  0.56530703    -0.32100
H573        H  0.85604059  0.37689204  0.56768177     0.29200
H574        H  0.83310943  0.26846340  0.36439904     0.29200
H575        H  0.85905645  0.38115177  0.41703552     0.19800
H576        H  0.83005854  0.26408497  0.51560237     0.19800
C577        C  0.83457682  0.73324196  0.46619718    -0.06000
C578        C  0.86273182  0.71569623  0.43705844    -0.17100
C579        C  0.87979441  0.67541898  0.44257598     0.11200
C580        C  0.86931755  0.65146528  0.47860305    -0.05900
C581        C  0.84243721  0.66955935  0.50876125    -0.17200
C582        C  0.82498011  0.70996907  0.50286451     0.11200
S583        S  0.91400954  0.65601720  0.40144882    -0.32100
S584        S  0.78826435  0.72911093  0.54174441    -0.32100
H585        H  0.79838432  0.77190625  0.53635623     0.29200
H586        H  0.90552147  0.61311583  0.40798949     0.29200
H587        H  0.86881384  0.73205959  0.40788986     0.19800
H588        H  0.83567214  0.65255393  0.53740811     0.19800
C589        C  0.12573826  0.35245971  0.51965766    -0.06000
C590        C  0.14946218  0.34707930  0.55607068    -0.17100
C591        C  0.17401989  0.31092390  0.56169449     0.11200
C592        C  0.17591043  0.27928226  0.52965570    -0.05900
C593        C  0.14958567  0.28313074  0.49467570    -0.17200
C594        C  0.12463220  0.31926570  0.48928213     0.11200
S595        S  0.20448770  0.30898378  0.60954219    -0.32100
S596        S  0.09404375  0.32192201  0.44168434    -0.32100
H597        H  0.09322371  0.36620165  0.43912203     0.29200
H598        H  0.22141388  0.26842761  0.60409363     0.29200
H599        H  0.14869699  0.37121007  0.58052418     0.19800
H600        H  0.15144603  0.25986056  0.46947739     0.19800
C601        C  0.17276602  0.72152493  0.53897101    -0.06000
C602        C  0.14304605  0.70871726  0.56866363    -0.17100
C603        C  0.12411156  0.66894436  0.56599873     0.11200
C604        C  0.13360156  0.64129676  0.53201146    -0.05900
C605        C  0.16281814  0.65418405  0.50173391    -0.17200
C606        C  0.18329586  0.69343528  0.50550253     0.11200
S607        S  0.08833806  0.65465995  0.60754709    -0.32100
S608        S  0.22353370  0.70526526  0.46749954    -0.32100
H609        H  0.25360678  0.71791386  0.49732794     0.29200
H610        H  0.09936975  0.61158536  0.60701017     0.29200
H611        H  0.13645299  0.72887401  0.59565501     0.19800
H612        H  0.16940472  0.63383201  0.47490714     0.19800
C613        C  0.86675115  0.50296224  0.64479270    -0.06000
C614        C  0.87140905  0.46045871  0.65593402    -0.17100
C615        C  0.86285997  0.44673308  0.69677020     0.11200
C616        C  0.84536676  0.47497949  0.72685217    -0.05900
C617        C  0.84239531  0.51798185  0.71639100    -0.17200
C618        C  0.85367779  0.53231571  0.67609282     0.11200
S619        S  0.87424077  0.39226713  0.70871391    -0.32100
S620        S  0.84899640  0.58811715  0.66596331    -0.32100
H621        H  0.84201881  0.58404365  0.62247487     0.29200
H622        H  0.87752381  0.39873146  0.75239664     0.29200
H623        H  0.88364377  0.43794866  0.63311165     0.19800
H624        H  0.82869250  0.54013701  0.73858954     0.19800
C625        C  0.84060966  0.48415698  0.83069203    -0.06000
C626        C  0.86642991  0.45029009  0.84298424    -0.17100
C627        C  0.89535090  0.45387576  0.87629682     0.11200
C628        C  0.90064690  0.49297028  0.89787513    -0.05900
C629        C  0.87492942  0.52708653  0.88563648    -0.17200
C630        C  0.84491476  0.52304208  0.85290870     0.11200
S631        S  0.92433729  0.40685654  0.88972015    -0.32100
S632        S  0.81328665  0.56873102  0.84146323    -0.32100
H633        H  0.79685255  0.55418104  0.80317950     0.29200
H634        H  0.93153045  0.41731840  0.93211108     0.29200
H635        H  0.86278104  0.41995423  0.82731745     0.19800
H636        H  0.87816346  0.55718751  0.90188341     0.19800
C637        C  0.16185547  0.47391605  0.73778409    -0.06000
C638        C  0.17914294  0.49993991  0.70638610    -0.17100
C639        C  0.15724364  0.50862073  0.66916837     0.11200
C640        C  0.11719814  0.49087710  0.66296784    -0.05900
C641        C  0.09938802  0.46617339  0.69511050    -0.17200
C642        C  0.12118876  0.45745488  0.73209132     0.11200
S643        S  0.18067628  0.54264210  0.63051146    -0.32100
S644        S  0.09675690  0.42235467  0.76920531    -0.32100
H645        H  0.11824460  0.43775554  0.80460684     0.29200
H646        H  0.22216058  0.52995894  0.63901319     0.29200
H647        H  0.21091267  0.51164288  0.70997464     0.19800
H648        H  0.06852545  0.45226496  0.69083540     0.19800
C649        C  0.18427385  0.48394648  0.83828080    -0.06000
C650        C  0.17982671  0.45340803  0.87004977    -0.17100
C651        C  0.14932920  0.45700318  0.90213451     0.11200
C652        C  0.12336893  0.49337503  0.90498167    -0.05900
C653        C  0.12904084  0.52488008  0.87441806    -0.17200
C654        C  0.15801003  0.52024791  0.84089016     0.11200
S655        S  0.14363545  0.41263493  0.93691372    -0.32100
S656        S  0.15830751  0.56169633  0.80242665    -0.32100
H657        H  0.19253598  0.54729611  0.77895844     0.29200
H658        H  0.10014780  0.41704471  0.94335888     0.29200
H659        H  0.19838496  0.42474740  0.86804746     0.19800
H660        H  0.10940574  0.55285021  0.87581252     0.19800
C661        C  0.83630160  0.47115023  0.27629579    -0.06000
C662        C  0.83329624  0.51115674  0.29566148    -0.17100
C663        C  0.85007389  0.51863363  0.33575044     0.11200
C664        C  0.87163338  0.48589939  0.35638695    -0.05900
C665        C  0.87720473  0.44692230  0.33556723    -0.17200
C666        C  0.85984761  0.43933078  0.29598099     0.11200
S667        S  0.84248023  0.57022708  0.35887588    -0.32100
S668        S  0.86602587  0.38747704  0.27295963    -0.32100
H669        H  0.86499932  0.40219924  0.23147404     0.29200
H670        H  0.83608297  0.55582287  0.40000512     0.29200
H671        H  0.81403603  0.53536437  0.28140058     0.19800
H672        H  0.89543432  0.42218438  0.35028803     0.19800
C673        C  0.82345372  0.47788289  0.17740404    -0.06000
C674        C  0.84297532  0.51765679  0.17331374    -0.17100
C675        C  0.87607749  0.52452790  0.14423608     0.11200
C676        C  0.89229231  0.49045346  0.11970192    -0.05900
C677        C  0.87275023  0.45075391  0.12393064    -0.17200
C678        C  0.83884114  0.44413735  0.15186687     0.11200
S679        S  0.89610292  0.57764637  0.13987198    -0.32100
S680        S  0.81691987  0.39145548  0.15276451    -0.32100
H681        H  0.79728652  0.39347199  0.19214981     0.29200
H682        H  0.90927283  0.57431114  0.09778306     0.29200
H683        H  0.83226239  0.54371463  0.19287246     0.19800
H684        H  0.88404592  0.42443292  0.10498661     0.19800
C685        C  0.14028990  0.49862234  0.37524436    -0.06000
C686        C  0.14209761  0.53687363  0.35329571    -0.17100
C687        C  0.15814511  0.53882851  0.31234858     0.11200
C688        C  0.17425949  0.50219529  0.29242588    -0.05900
C689        C  0.17053964  0.46347151  0.31362060    -0.17200
C690        C  0.15386173  0.46132948  0.35450806     0.11200
S691        S  0.15914142  0.58948349  0.28742210    -0.32100
S692        S  0.15072191  0.41008979  0.37861316    -0.32100
H693        H  0.15181409  0.42496062  0.42038849     0.29200
H694        H  0.14547244  0.57264539  0.24876396     0.29200
H695        H  0.12897848  0.56527018  0.36750727     0.19800
H696        H  0.18406773  0.43519280  0.29959772     0.19800
C697        C  0.11725176  0.50543571  0.12803155    -0.06000
C698        C  0.14010821  0.54324460  0.13404123    -0.17100
C699        C  0.17212920  0.54723380  0.16467316     0.11200
C700        C  0.18210007  0.51285376  0.19128222    -0.05900
C701        C  0.15884761  0.47523435  0.18575477    -0.17200
C702        C  0.12758693  0.47088408  0.15429998     0.11200
S703        S  0.19809130  0.59769227  0.16863866    -0.32100
S704        S  0.10271490  0.41990402  0.14871371    -0.32100
H705        H  0.09507845  0.42253265  0.10531786     0.29200
H706        H  0.20753652  0.59476891  0.21143300     0.29200
H707        H  0.13298401  0.57009678  0.11439941     0.19800
H708        H  0.16607644  0.44841926  0.20539142     0.19800
C709        C  0.48708602  0.36201697  0.12646199    -0.06000
C710        C  0.52425400  0.34034114  0.13576326    -0.17100
C711        C  0.52335930  0.30047299  0.15447806     0.11200
C712        C  0.48449540  0.28146410  0.16459637    -0.05900
C713        C  0.44730088  0.30253343  0.15353602    -0.17200
C714        C  0.44819141  0.34212460  0.13423141     0.11200
S715        S  0.57286965  0.27702810  0.16838161    -0.32100
S716        S  0.39863292  0.36575881  0.12047717    -0.32100
H717        H  0.41217923  0.40789821  0.12467897     0.29200
H718        H  0.55939350  0.23548115  0.16062937     0.29200
H719        H  0.55426988  0.35427239  0.12779642     0.19800
H720        H  0.41722849  0.28975809  0.16310666     0.19800
C721        C  0.44530557  0.73030858  0.15498363    -0.06000
C722        C  0.48811407  0.72018362  0.15889749    -0.17100
C723        C  0.50360654  0.68060020  0.14555740     0.11200
C724        C  0.47562882  0.64984873  0.12921617    -0.05900
C725        C  0.43327250  0.66062320  0.12410030    -0.17200
C726        C  0.41822825  0.70059049  0.13544076     0.11200
S727        S  0.55931170  0.67126609  0.14966264    -0.32100
S728        S  0.36391619  0.71197081  0.12402152    -0.32100
H729        H  0.36917157  0.75607378  0.12264467     0.29200
H730        H  0.55674409  0.62688380  0.15044347     0.29200
H731        H  0.50919723  0.74227115  0.17435937     0.19800
H732        H  0.41217457  0.63853459  0.10854603     0.19800
C733        C  0.49444015  0.65560071  0.86775941    -0.06000
C734        C  0.46132722  0.68035999  0.88410408    -0.17100
C735        C  0.44942588  0.71830860  0.86569262     0.11200
C736        C  0.47036351  0.73218355  0.82944758    -0.05900
C737        C  0.50517751  0.70885748  0.81436570    -0.17200
C738        C  0.51745721  0.67066803  0.83328429     0.11200
S739        S  0.40488081  0.74591967  0.88771083    -0.32100
S740        S  0.56158801  0.64116686  0.81306012    -0.32100
H741        H  0.57499041  0.67176246  0.78414781     0.29200
H742        H  0.41678730  0.78585255  0.87298274     0.29200
H743        H  0.44411712  0.66970031  0.91149748     0.19800
H744        H  0.52043762  0.71877088  0.78562881     0.19800
C745        C  0.65776441  0.49405290  0.87261534    -0.06000
C746        C  0.68289149  0.46039500  0.88676568    -0.17100
C747        C  0.72268740  0.45227787  0.87023700     0.11200
C748        C  0.73865633  0.47794519  0.83806626    -0.05900
C749        C  0.71407645  0.51218981  0.82413914    -0.17200
C750        C  0.67424045  0.52098684  0.84156811     0.11200
S751        S  0.75017263  0.40640418  0.88924934    -0.32100
S752        S  0.64626382  0.56635848  0.82254175    -0.32100
H753        H  0.62456112  0.57534883  0.86009249     0.29200
H754        H  0.79052114  0.42012908  0.87785950     0.29200
H755        H  0.67130458  0.43992333  0.91133377     0.19800
H756        H  0.72493067  0.53079909  0.79784690     0.19800
C757        C  0.52400689  0.36597085  0.85857432    -0.06000
C758        C  0.49206209  0.34470152  0.83667014    -0.17100
C759        C  0.49958886  0.30541121  0.81696883     0.11200
C760        C  0.53904920  0.28518344  0.82162945    -0.05900
C761        C  0.57028701  0.30599772  0.84506774    -0.17200
C762        C  0.56352745  0.34615297  0.86260374     0.11200
S763        S  0.45845304  0.28432792  0.78429984    -0.32100
S764        S  0.60678009  0.37089956  0.88976410    -0.32100
H765        H  0.59692640  0.41193559  0.87633965     0.29200
H766        H  0.48502993  0.27440371  0.75025731     0.29200
H767        H  0.46119518  0.35894326  0.83456565     0.19800
H768        H  0.60127670  0.29197826  0.84737475     0.19800
C769        C  0.36886452  0.48841396  0.85613218    -0.06000
C770        C  0.34398637  0.51995721  0.83798477    -0.17100
C771        C  0.30377612  0.51076724  0.82195168     0.11200
C772        C  0.28636425  0.46978488  0.82675034    -0.05900
C773        C  0.31130882  0.43861883  0.84557116    -0.17200
C774        C  0.35219062  0.44715172  0.85930458     0.11200
S775        S  0.27769607  0.55206658  0.79386588    -0.32100
S776        S  0.38108783  0.40422855  0.88248557    -0.32100
H777        H  0.42112437  0.41985573  0.87229831     0.29200
H778        H  0.26639704  0.52561699  0.75997886     0.29200
H779        H  0.35580009  0.55208162  0.83671101     0.19800
H780        H  0.29929500  0.40665252  0.84821523     0.19800
C781        C  0.28260473  0.52891628  0.17896611    -0.06000
C782        C  0.28307962  0.49679287  0.14832997    -0.17100
C783        C  0.31783098  0.49130048  0.12143522     0.11200
C784        C  0.35332029  0.51833192  0.12539825    -0.05900
C785        C  0.35148186  0.55219289  0.15385209    -0.17200
C786        C  0.31650736  0.55833572  0.17987489     0.11200
S787        S  0.31550303  0.44759679  0.08458840    -0.32100
S788        S  0.31885287  0.60309950  0.21561561    -0.32100
H789        H  0.27652668  0.60284787  0.22768086     0.29200
H790        H  0.35893470  0.44205848  0.07955716     0.29200
H791        H  0.25797534  0.47361774  0.14770955     0.19800
H792        H  0.37748693  0.57431943  0.15564623     0.19800
C793        C  0.72015590  0.47630344  0.17282967    -0.06000
C794        C  0.70263392  0.44304268  0.14931783    -0.17100
C795        C  0.66220578  0.44589321  0.13238632     0.11200
C796        C  0.63829405  0.48337591  0.13785109    -0.05900
C797        C  0.65604323  0.51717800  0.16043724    -0.17200
C798        C  0.69636824  0.51392259  0.17810735     0.11200
S799        S  0.64270800  0.40017128  0.10401065    -0.32100
S800        S  0.71480418  0.55787939  0.20948694    -0.32100
H801        H  0.75764648  0.54888101  0.20425068     0.29200
H802        H  0.59989262  0.41063276  0.10679580     0.29200
H803        H  0.71924793  0.41317793  0.14702330     0.19800
H804        H  0.63900958  0.54675918  0.16317293     0.19800
loop_ 
_geom_bond_atom_site_label_1 
_geom_bond_atom_site_label_2 
_geom_bond_distance 
_geom_bond_site_symmetry_2 
_ccdc_geom_bond_type 
O1          Zr13   2.393   1_554  S
O1            C3   1.277       .  A
O2          Zr39   2.471       .  S
O2            C3   1.297       .  A
C3          C709   1.468       .  S
O4          Zr16   2.372   1_556  S
O4            C6   1.276       .  A
O5          Zr40   2.501       .  S
O5            C6   1.302       .  A
C6          C745   1.484       .  S
O7          Zr16   2.369       .  S
O7            C9   1.274       .  A
O8          Zr39   2.495       .  S
O8            C9   1.301       .  A
C9          C796   1.474       .  S
O10         Zr13   2.404       .  S
O10          C12   1.280       .  A
O11         Zr40   2.481       .  S
O11          C12   1.298       .  A
C12         C757   1.474       .  S
Zr13         O14   2.434       .  S
Zr13         O15   2.438       .  S
Zr13         O19   2.364   1_556  S
Zr13         O20   2.361       .  S
Zr13         O43   2.351       .  S
Zr13         O45   2.362   1_556  S
O14          H57   0.990   1_556  S
O15          H56   0.990   1_556  S
O15          H60   0.990       .  S
Zr16         O17   2.438       .  S
Zr16         O18   2.434       .  S
Zr16         O20   2.350   1_554  S
Zr16         O19   2.359       .  S
Zr16         O44   2.356       .  S
Zr16         O46   2.361   1_554  S
O17          H58   0.990   1_554  S
O17          H61   0.990   1_554  S
O18          H51   0.990       .  S
O19         Zr39   2.386       .  S
O20         Zr40   2.391       .  S
O20          H47   0.965       .  S
O21         Zr33   2.392       .  S
O21          C23   1.277       .  A
O22         Zr40   2.486       .  S
O22          C23   1.299       .  A
C23         C769   1.474       .  S
O24         Zr36   2.387   1_554  S
O24          C26   1.276       .  A
O25         Zr39   2.473       .  S
O25          C26   1.297       .  A
C26         C724   1.468       .  S
O27         Zr36   2.386       .  S
O27          C29   1.277       .  A
O28         Zr40   2.490       .  S
O28          C29   1.300       .  A
C29         C733   1.478       .  S
O30         Zr33   2.411   1_554  S
O30          C32   1.281       .  A
O31         Zr39   2.472       .  S
O31          C32   1.297       .  A
C32         C784   1.480       .  S
Zr33         O34   2.437       .  S
Zr33         O35   2.434       .  S
Zr33         O41   2.358       .  S
Zr33         O42   2.354   1_556  S
Zr33         O45   2.363   1_556  S
Zr33         O43   2.370       .  S
O34          H54   0.990       .  S
O34          H59   0.990       .  S
O35          H55   0.990       .  S
Zr36         O37   2.435       .  S
Zr36         O38   2.434   1_556  S
Zr36         O42   2.368   1_556  S
Zr36         O41   2.381       .  S
Zr36         O46   2.349       .  S
Zr36         O44   2.353   1_556  S
O37          H53   0.990       .  S
O38          H52   0.990   1_554  S
O38          H62   0.990       .  S
Zr39         O42   2.389       .  S
Zr39         O44   2.398       .  S
Zr39         O45   2.398       .  S
Zr40         O41   2.407       .  S
Zr40         O43   2.397       .  S
Zr40         O46   2.400       .  S
O41          H49   0.965       .  S
O44          H48   0.966       .  S
O45          H50   0.966       .  S
N63          C67   1.377       .  A
N63          C64   1.375       .  A
N63         C700   1.468       .  S
C64         C688   1.478       .  S
C64          C65   1.377       .  A
C65          C66   1.352       .  A
C65          H68   1.083       .  S
C66          C67   1.382       .  A
C66          H69   1.083       .  S
C67         C781   1.485       .  S
N70          C74   1.372       .  A
N70          C71   1.364       .  A
N70         C673   1.462       .  S
C71         C661   1.466       .  S
C71          C72   1.379       .  A
C72          C73   1.356       .  A
C72          H75   1.083       .  S
C73          C74   1.379       .  A
C73          H76   1.083       .  S
C74         C793   1.475       .  S
N77          C81   1.369       .  A
N77          C78   1.373       .  A
N77         C649   1.464       .  S
C78         C772   1.491       .  S
C78          C79   1.380       .  A
C79          C80   1.357       .  A
C79          H82   1.083       .  S
C80          C81   1.379       .  A
C80          H83   1.083       .  S
C81         C637   1.476       .  S
N84          C88   1.373       .  A
N84          C85   1.369       .  A
N84         C625   1.463       .  S
C85         C748   1.476       .  S
C85          C86   1.375       .  A
C86          C87   1.354       .  A
C86          H89   1.083       .  S
C87          C88   1.383       .  A
C87          H90   1.082       .  S
C88         C616   1.490       .  S
N91          C96   1.366   1_455  A
N91          C95   1.367       .  A
N91         H123   1.032       .  S
N92          C99   1.362       .  A
N92         C100   1.362   1_554  A
N93          C98   1.364   1_455  A
N93          C97   1.364       .  A
N93         H124   1.034       .  S
N94         C101   1.361       .  A
N94         C102   1.362   1_554  A
C95         C103   1.388       .  A
C95         C111   1.444       .  A
C96         C112   1.443       .  A
C96         C104   1.388       .  A
C97         C105   1.389       .  A
C97         C114   1.438       .  A
C98         C113   1.437       .  A
C98         C106   1.387       .  A
C99         C111   1.437       .  A
C99         C107   1.388       .  A
C100        C114   1.436       .  A
C100        C108   1.386       .  A
C101        C109   1.388       .  A
C101        C112   1.435       .  A
C102        C110   1.386       .  A
C102        C113   1.433       .  A
C103        C104   1.384   1_455  A
C103        H115   1.082       .  S
C104        H116   1.082       .  S
C105        C106   1.376   1_455  A
C105        H117   1.082       .  S
C106        H118   1.082       .  S
C107        C108   1.376   1_554  A
C107        H119   1.082       .  S
C108        H120   1.082       .  S
C109        C110   1.375   1_554  A
C109        H121   1.082       .  S
C110        H122   1.082       .  S
C111        C697   1.532       .  S
C112        C676   1.527       .  S
C113        C628   1.525       .  S
C114        C652   1.525       .  S
O125       Zr137   2.374       .  S
O125        C127   1.274       .  A
O126       Zr163   2.492       .  S
O126        C127   1.300       .  A
C127        C685   1.472       .  S
O128       Zr140   2.388       .  S
O128        C130   1.278       .  A
O129       Zr164   2.499       .  S
O129        C130   1.302       .  A
C130        C580   1.480       .  S
O131       Zr140   2.386   1_455  S
O131        C133   1.278       .  A
O132       Zr163   2.484       .  S
O132        C133   1.298       .  A
C133        C604   1.473       .  S
O134       Zr137   2.393   1_655  S
O134        C136   1.278       .  A
O135       Zr164   2.461       .  S
O135        C136   1.294       .  A
C136        C664   1.468       .  S
Zr137       O138   2.436       .  S
Zr137       O139   2.436       .  S
Zr137       O143   2.367       .  S
Zr137       O144   2.349   1_455  S
Zr137       O167   2.349   1_455  S
Zr137       O169   2.356       .  S
O138        H181   0.990       .  S
O139        H180   0.990       .  S
O139        H184   0.990   1_455  S
Zr140       O141   2.434   1_655  S
Zr140       O142   2.434       .  S
Zr140       O144   2.362       .  S
Zr140       O143   2.360   1_655  S
Zr140       O168   2.362   1_655  S
Zr140       O170   2.357       .  S
O141        H182   0.989   1_455  S
O141        H185   0.990   1_455  S
O142        H175   0.990       .  S
O143       Zr163   2.390       .  S
O144       Zr164   2.391       .  S
O144        H171   0.964       .  S
O145       Zr157   2.387       .  S
O145        C147   1.277       .  A
O146       Zr164   2.474       .  S
O146        C147   1.297       .  A
C147        C565   1.469       .  S
O148       Zr160   2.399   1_455  S
O148        C150   1.280       .  A
O149       Zr163   2.467       .  S
O149        C150   1.296       .  A
C150        C640   1.482       .  S
O151       Zr160   2.413       .  S
O151        C153   1.272       .  A
O152       Zr164   2.472       .  S
O152        C153   1.291       .  A
C153        C613   1.483       .  S
O154       Zr157   2.397   1_455  S
O154        C156   1.279       .  A
O155       Zr163   2.480       .  S
O155        C156   1.299       .  A
C156        C589   1.476       .  S
Zr157       O158   2.435       .  S
Zr157       O159   2.434       .  S
Zr157       O165   2.364       .  S
Zr157       O166   2.357   1_655  S
Zr157       O169   2.364   1_655  S
Zr157       O167   2.359       .  S
O158        H178   0.990       .  S
O158        H183   0.990   1_655  S
O159        H179   0.989   1_655  S
Zr160       O161   2.434       .  S
Zr160       O162   2.436       .  S
Zr160       O166   2.369   1_655  S
Zr160       O165   2.369       .  S
Zr160       O170   2.368       .  S
Zr160       O168   2.363   1_655  S
O161        H177   0.990       .  S
O162        H176   0.990       .  S
O162        H186   0.990       .  S
Zr163       O166   2.396       .  S
Zr163       O168   2.399       .  S
Zr163       O169   2.391       .  S
Zr164       O165   2.416       .  S
Zr164       O167   2.388       .  S
Zr164       O170   2.398       .  S
O165        H173   0.966       .  S
O168        H172   0.965       .  S
O169        H174   0.965       .  S
N187        C191   1.368       .  A
N187        C188   1.369       .  A
N187        C556   1.461       .  S
C188        C541   1.486       .  S
C188        C189   1.381       .  A
C189        C190   1.355       .  A
C189        H192   1.083       .  S
C190        C191   1.381       .  A
C190        H193   1.083       .  S
C191        C721   1.482       .  S
N194        C198   1.371       .  A
N194        C195   1.370       .  A
N194        C532   1.463       .  S
C195        C520   1.474       .  S
C195        C196   1.379       .  A
C196        C197   1.356       .  A
C196        H199   1.083       .  S
C197        C198   1.379       .  A
C197        H200   1.083       .  S
C198        C712   1.473       .  S
N201        C205   1.371       .  A
N201        C202   1.372       .  A
N201        C505   1.465       .  S
C202        C760   1.483       .  S
C202        C203   1.379       .  A
C203        C204   1.356       .  A
C203        H206   1.083       .  S
C204        C205   1.379       .  A
C204        H207   1.083       .  S
C205        C493   1.478       .  S
N208        C212   1.373       .  A
N208        C209   1.364       .  A
N208        C481   1.464       .  S
C209        C736   1.472       .  S
C209        C210   1.376       .  A
C210        C211   1.358       .  A
C210        H213   1.083       .  S
C211        C212   1.385       .  A
C211        H214   1.082       .  S
C212        C469   1.489       .  S
N215        C220   1.364       .  A
N215        C219   1.363   1_545  A
N215        H247   1.033       .  S
N216        C223   1.361   1_556  A
N216        C224   1.361       .  A
N217        C222   1.364       .  A
N217        C221   1.364   1_545  A
N217        H248   1.036       .  S
N218        C225   1.362   1_556  A
N218        C226   1.362       .  A
C219        C227   1.387       .  A
C219        C235   1.436       .  A
C220        C236   1.438       .  A
C220        C228   1.388       .  A
C221        C229   1.386       .  A
C221        C238   1.435       .  A
C222        C237   1.438       .  A
C222        C230   1.389       .  A
C223        C235   1.434       .  A
C223        C231   1.387       .  A
C224        C238   1.432       .  A
C224        C232   1.386       .  A
C225        C233   1.387       .  A
C225        C236   1.436       .  A
C226        C234   1.387       .  A
C226        C237   1.435       .  A
C227        C228   1.379   1_565  A
C227        H239   1.082       .  S
C228        H240   1.082       .  S
C229        C230   1.380   1_565  A
C229        H241   1.082       .  S
C230        H242   1.082       .  S
C231        C232   1.377   1_554  A
C231        H243   1.082       .  S
C232        H244   1.082       .  S
C233        C234   1.377   1_554  A
C233        H245   1.082       .  S
C234        H246   1.082       .  S
C235        C553   1.521       .  S
C236        C529   1.525       .  S
C237        C508   1.527       .  S
C238        C484   1.522       .  S
N249        C253   1.365       .  A
N249        C250   1.368       .  A
N249        C460   1.465       .  S
C250        C601   1.474       .  S
C250        C251   1.379       .  A
C251        C252   1.357       .  A
C251        H254   1.083       .  S
C252        C253   1.379       .  A
C252        H255   1.083       .  S
C253        C445   1.469       .  S
N256        C260   1.371       .  A
N256        C257   1.363       .  A
N256        C433   1.463       .  S
C257        C424   1.469       .  S
C257        C258   1.376       .  A
C258        C259   1.357       .  A
C258        H261   1.083       .  S
C259        C260   1.385       .  A
C259        H262   1.082       .  S
C260        C568   1.482       .  S
N263        C267   1.375       .  A
N263        C264   1.375       .  A
N263        C409   1.470       .  S
C264        C400   1.476       .  S
C264        C265   1.378       .  A
C265        C266   1.352       .  A
C265        H268   1.083       .  S
C266        C267   1.381       .  A
C266        H269   1.083       .  S
C267        C592   1.479       .  S
N270        C274   1.372       .  A
N270        C271   1.369       .  A
N270        C385   1.465       .  S
C271        C577   1.478       .  S
C271        C272   1.376       .  A
C272        C273   1.356       .  A
C272        H275   1.083       .  S
C273        C274   1.385       .  A
C273        H276   1.083       .  S
C274        C373   1.485       .  S
N277        C282   1.365   1_455  A
N277        C281   1.363       .  A
N277        H309   1.033       .  S
N278        C285   1.362   1_545  A
N278        C286   1.363       .  A
N279        C284   1.364   1_455  A
N279        C283   1.365       .  A
N279        H310   1.031       .  S
N280        C287   1.361   1_545  A
N280        C288   1.361       .  A
C281        C289   1.388       .  A
C281        C297   1.438       .  A
C282        C298   1.438       .  A
C282        C290   1.388       .  A
C283        C291   1.388       .  A
C283        C300   1.441       .  A
C284        C299   1.439       .  A
C284        C292   1.387       .  A
C285        C297   1.436       .  A
C285        C293   1.387       .  A
C286        C300   1.437       .  A
C286        C294   1.387       .  A
C287        C295   1.387       .  A
C287        C298   1.433       .  A
C288        C296   1.387       .  A
C288        C299   1.434       .  A
C289        C290   1.379   1_455  A
C289        H301   1.082       .  S
C290        H302   1.082       .  S
C291        C292   1.382   1_455  A
C291        H303   1.082       .  S
C292        H304   1.082       .  S
C293        C294   1.379   1_565  A
C293        H305   1.082       .  S
C294        H306   1.082       .  S
C295        C296   1.376   1_565  A
C295        H307   1.082       .  S
C296        H308   1.082       .  S
C297        C457   1.525       .  S
C298        C388   1.525       .  S
C299        C436   1.523       .  S
C300        C412   1.529       .  S
O311       Zr323   2.392       .  S
O311        C313   1.278       .  A
O312       Zr349   2.469       .  S
O312        C313   1.296       .  A
C313        C448   1.473       .  S
O314       Zr326   2.405   1_545  S
O314        C316   1.280       .  A
O315       Zr350   2.481       .  S
O315        C316   1.299       .  A
C316        C517   1.474       .  S
O317       Zr326   2.397       .  S
O317        C319   1.279       .  A
O318       Zr349   2.485       .  S
O318        C319   1.300       .  A
C319        C544   1.475       .  S
O320       Zr323   2.369   1_545  S
O320        C322   1.273       .  A
O321       Zr350   2.500       .  S
O321        C322   1.302       .  A
C322        C397   1.474       .  S
Zr323       O324   2.435   1_565  S
Zr323       O325   2.437   1_565  S
Zr323       O329   2.348       .  S
Zr323       O330   2.351   1_565  S
Zr323       O353   2.367   1_565  S
Zr323       O355   2.356       .  S
O324        H367   0.990   1_545  S
O325        H366   0.990   1_545  S
O325        H370   0.990   1_545  S
Zr326       O327   2.439       .  S
Zr326       O328   2.435       .  S
Zr326       O330   2.370   1_565  S
Zr326       O329   2.368       .  S
Zr326       O354   2.359       .  S
Zr326       O356   2.354   1_565  S
O327        H368   0.990   1_565  S
O327        H371   0.990   1_565  S
O328        H361   0.990   1_565  S
O329       Zr349   2.388       .  S
O330       Zr350   2.396       .  S
O330        H357   0.966       .  S
O331       Zr343   2.391   1_545  S
O331        C333   1.279       .  A
O332       Zr350   2.493       .  S
O332        C333   1.301       .  A
C333        C496   1.487       .  S
O334       Zr346   2.413       .  S
O334        C336   1.273       .  A
O335       Zr349   2.471       .  S
O335        C336   1.292       .  A
C336        C376   1.483       .  S
O337       Zr346   2.401   1_545  S
O337        C339   1.280       .  A
O338       Zr350   2.470       .  S
O338        C339   1.297       .  A
C339        C421   1.472       .  S
O340       Zr343   2.393       .  S
O340        C342   1.279       .  A
O341       Zr349   2.488       .  S
O341        C342   1.300       .  A
C342        C472   1.475       .  S
Zr343       O344   2.436       .  S
Zr343       O345   2.435   1_565  S
Zr343       O351   2.363   1_565  S
Zr343       O352   2.353       .  S
Zr343       O355   2.357       .  S
Zr343       O353   2.359   1_565  S
O344        H364   0.990   1_565  S
O344        H369   0.990       .  S
O345        H365   0.990       .  S
Zr346       O347   2.437       .  S
Zr346       O348   2.434       .  S
Zr346       O352   2.362       .  S
Zr346       O351   2.364   1_565  S
Zr346       O356   2.371   1_565  S
Zr346       O354   2.375       .  S
O347        H363   0.990   1_565  S
O348        H362   0.989       .  S
O348        H372   0.990       .  S
Zr349       O352   2.398       .  S
Zr349       O354   2.416       .  S
Zr349       O355   2.394       .  S
Zr350       O351   2.403       .  S
Zr350       O353   2.382       .  S
Zr350       O356   2.397       .  S
O351        H359   0.965       .  S
O354        H358   0.965       .  S
O355        H360   0.965       .  S
C373        C374   1.405       .  A
C373        C378   1.417       .  A
C374        C375   1.407       .  A
C374        H383   1.082       .  S
C375        C376   1.416       .  A
C375        S379   1.802       .  S
C376        C377   1.402       .  A
C377        C378   1.400       .  A
C377        H384   1.084       .  S
C378        S380   1.804       .  S
S379        H382   1.406       .  S
S380        H381   1.407       .  S
C385        C386   1.409       .  A
C385        C390   1.422       .  A
C386        C387   1.419       .  A
C386        H395   1.081       .  S
C387        C388   1.422       .  A
C387        S391   1.803       .  S
C388        C389   1.405       .  A
C389        C390   1.411       .  A
C389        H396   1.084       .  S
C390        S392   1.801       .  S
S391        H394   1.405       .  S
S392        H393   1.402       .  S
C397        C398   1.402       .  A
C397        C402   1.419       .  A
C398        C399   1.404       .  A
C398        H407   1.084       .  S
C399        C400   1.418       .  A
C399        S403   1.806       .  S
C400        C401   1.402       .  A
C401        C402   1.405       .  A
C401        H408   1.084       .  S
C402        S404   1.808       .  S
S403        H406   1.403       .  S
S404        H405   1.402       .  S
C409        C410   1.410       .  A
C409        C414   1.420       .  A
C410        C411   1.418       .  A
C410        H419   1.081       .  S
C411        C412   1.421       .  A
C411        S415   1.803       .  S
C412        C413   1.408       .  A
C413        C414   1.416       .  A
C413        H420   1.083       .  S
C414        S416   1.796       .  S
S415        H418   1.405       .  S
S416        H417   1.407       .  S
C421        C422   1.398       .  A
C421        C426   1.417       .  A
C422        C423   1.402       .  A
C422        H431   1.084       .  S
C423        C424   1.418       .  A
C423        S427   1.805       .  S
C424        C425   1.398       .  A
C425        C426   1.398       .  A
C425        H432   1.084       .  S
C426        S428   1.805       .  S
S427        H430   1.401       .  S
S428        H429   1.406       .  S
C433        C434   1.408       .  A
C433        C438   1.419       .  A
C434        C435   1.417       .  A
C434        H443   1.082       .  S
C435        C436   1.421       .  A
C435        S439   1.803       .  S
C436        C437   1.405       .  A
C437        C438   1.411       .  A
C437        H444   1.084       .  S
C438        S440   1.799       .  S
S439        H442   1.405       .  S
S440        H441   1.405       .  S
C445        C446   1.412       .  A
C445        C450   1.403       .  A
C446        C447   1.405       .  A
C446        H455   1.083       .  S
C447        C448   1.407       .  A
C447        S451   1.803       .  S
C448        C449   1.408       .  A
C449        C450   1.391       .  A
C449        H456   1.083       .  S
C450        S452   1.803       .  S
S451        H454   1.405       .  S
S452        H453   1.401       .  S
C457        C458   1.411       .  A
C457        C462   1.417       .  A
C458        C459   1.418       .  A
C458        H467   1.083       .  S
C459        C460   1.419       .  A
C459        S463   1.800       .  S
C460        C461   1.410       .  A
C461        C462   1.411       .  A
C461        H468   1.083       .  S
C462        S464   1.803       .  S
S463        H466   1.402       .  S
S464        H465   1.406       .  S
C469        C470   1.405       .  A
C469        C474   1.422       .  A
C470        C471   1.406       .  A
C470        H479   1.084       .  S
C471        C472   1.415       .  A
C471        S475   1.803       .  S
C472        C473   1.400       .  A
C473        C474   1.400       .  A
C473        H480   1.085       .  S
C474        S476   1.807       .  S
S475        H478   1.406       .  S
S476        H477   1.400       .  S
C481        C482   1.409       .  A
C481        C486   1.421       .  A
C482        C483   1.419       .  A
C482        H491   1.083       .  S
C483        C484   1.422       .  A
C483        S487   1.802       .  S
C484        C485   1.403       .  A
C485        C486   1.409       .  A
C485        H492   1.084       .  S
C486        S488   1.799       .  S
S487        H490   1.404       .  S
S488        H489   1.405       .  S
C493        C494   1.412       .  A
C493        C498   1.401       .  A
C494        C495   1.405       .  A
C494        H503   1.084       .  S
C495        C496   1.410       .  A
C495        S499   1.802       .  S
C496        C497   1.414       .  A
C497        C498   1.402       .  A
C497        H504   1.082       .  S
C498        S500   1.806       .  S
S499        H502   1.402       .  S
S500        H501   1.407       .  S
C505        C506   1.411       .  A
C505        C510   1.421       .  A
C506        C507   1.412       .  A
C506        H515   1.083       .  S
C507        C508   1.418       .  A
C507        S511   1.803       .  S
C508        C509   1.411       .  A
C509        C510   1.418       .  A
C509        H516   1.083       .  S
C510        S512   1.802       .  S
S511        H514   1.406       .  S
S512        H513   1.395       .  S
C517        C518   1.403       .  A
C517        C522   1.412       .  A
C518        C519   1.399       .  A
C518        H527   1.084       .  S
C519        C520   1.409       .  A
C519        S523   1.800       .  S
C520        C521   1.408       .  A
C521        C522   1.407       .  A
C521        H528   1.084       .  S
C522        S524   1.802       .  S
S523        H526   1.405       .  S
S524        H525   1.406       .  S
C529        C530   1.407       .  A
C529        C534   1.420       .  A
C530        C531   1.413       .  A
C530        H539   1.084       .  S
C531        C532   1.422       .  A
C531        S535   1.802       .  S
C532        C533   1.408       .  A
C533        C534   1.415       .  A
C533        H540   1.083       .  S
C534        S536   1.802       .  S
S535        H538   1.403       .  S
S536        H537   1.405       .  S
C541        C542   1.407       .  A
C541        C546   1.412       .  A
C542        C543   1.410       .  A
C542        H551   1.084       .  S
C543        C544   1.417       .  A
C543        S547   1.804       .  S
C544        C545   1.401       .  A
C545        C546   1.400       .  A
C545        H552   1.084       .  S
C546        S548   1.808       .  S
S547        H550   1.405       .  S
S548        H549   1.407       .  S
C553        C554   1.404       .  A
C553        C558   1.422       .  A
C554        C555   1.412       .  A
C554        H563   1.083       .  S
C555        C556   1.418       .  A
C555        S559   1.804       .  S
C556        C557   1.407       .  A
C557        C558   1.418       .  A
C557        H564   1.083       .  S
C558        S560   1.802       .  S
S559        H562   1.407       .  S
S560        H561   1.404       .  S
C565        C566   1.399       .  A
C565        C570   1.415       .  A
C566        C567   1.399       .  A
C566        H575   1.085       .  S
C567        C568   1.420       .  A
C567        S571   1.806       .  S
C568        C569   1.403       .  A
C569        C570   1.402       .  A
C569        H576   1.083       .  S
C570        S572   1.804       .  S
S571        H574   1.402       .  S
S572        H573   1.407       .  S
C577        C578   1.399       .  A
C577        C582   1.418       .  A
C578        C579   1.397       .  A
C578        H587   1.084       .  S
C579        C580   1.419       .  A
C579        S583   1.803       .  S
C580        C581   1.402       .  A
C581        C582   1.408       .  A
C581        H588   1.084       .  S
C582        S584   1.800       .  S
S583        H586   1.400       .  S
S584        H585   1.403       .  S
C589        C590   1.396       .  A
C589        C594   1.420       .  A
C590        C591   1.398       .  A
C590        H599   1.084       .  S
C591        C592   1.422       .  A
C591        S595   1.808       .  S
C592        C593   1.401       .  A
C593        C594   1.404       .  A
C593        H600   1.084       .  S
C594        S596   1.804       .  S
S595        H598   1.400       .  S
S596        H597   1.403       .  S
C601        C602   1.398       .  A
C601        C606   1.419       .  A
C602        C603   1.396       .  A
C602        H611   1.084       .  S
C603        C604   1.416       .  A
C603        S607   1.803       .  S
C604        C605   1.401       .  A
C605        C606   1.405       .  A
C605        H612   1.084       .  S
C606        S608   1.801       .  S
S607        H610   1.406       .  S
S608        H609   1.404       .  S
C613        C614   1.401       .  A
C613        C618   1.416       .  A
C614        C615   1.400       .  A
C614        H623   1.083       .  S
C615        C616   1.416       .  A
C615        S619   1.804       .  S
C616        C617   1.406       .  A
C617        C618   1.409       .  A
C617        H624   1.081       .  S
C618        S620   1.803       .  S
S619        H622   1.407       .  S
S620        H621   1.406       .  S
C625        C626   1.409       .  A
C625        C630   1.419       .  A
C626        C627   1.409       .  A
C626        H635   1.083       .  S
C627        C628   1.418       .  A
C627        S631   1.805       .  S
C628        C629   1.413       .  A
C629        C630   1.419       .  A
C629        H636   1.083       .  S
C630        S632   1.802       .  S
S631        H634   1.404       .  S
S632        H633   1.400       .  S
C637        C638   1.411       .  A
C637        C642   1.406       .  A
C638        C639   1.405       .  A
C638        H647   1.082       .  S
C639        C640   1.406       .  A
C639        S643   1.802       .  S
C640        C641   1.410       .  A
C641        C642   1.397       .  A
C641        H648   1.084       .  S
C642        S644   1.803       .  S
S643        H646   1.408       .  S
S644        H645   1.402       .  S
C649        C650   1.411       .  A
C649        C654   1.422       .  A
C650        C651   1.411       .  A
C650        H659   1.083       .  S
C651        C652   1.418       .  A
C651        S655   1.804       .  S
C652        C653   1.410       .  A
C653        C654   1.415       .  A
C653        H660   1.084       .  S
C654        S656   1.802       .  S
S655        H658   1.405       .  S
S656        H657   1.393       .  S
C661        C662   1.405       .  A
C661        C666   1.407       .  A
C662        C663   1.401       .  A
C662        H671   1.084       .  S
C663        C664   1.410       .  A
C663        S667   1.799       .  S
C664        C665   1.404       .  A
C665        C666   1.395       .  A
C665        H672   1.085       .  S
C666        S668   1.800       .  S
S667        H670   1.404       .  S
S668        H669   1.404       .  S
C673        C674   1.409       .  A
C673        C678   1.421       .  A
C674        C675   1.418       .  A
C674        H683   1.082       .  S
C675        C676   1.421       .  A
C675        S679   1.802       .  S
C676        C677   1.408       .  A
C677        C678   1.413       .  A
C677        H684   1.084       .  S
C678        S680   1.806       .  S
S679        H682   1.405       .  S
S680        H681   1.400       .  S
C685        C686   1.403       .  A
C685        C690   1.413       .  A
C686        C687   1.400       .  A
C686        H695   1.085       .  S
C687        C688   1.411       .  A
C687        S691   1.794       .  S
C688        C689   1.408       .  A
C689        C690   1.406       .  A
C689        H696   1.084       .  S
C690        S692   1.802       .  S
S691        H694   1.405       .  S
S692        H693   1.406       .  S
C697        C698   1.410       .  A
C697        C702   1.421       .  A
C698        C699   1.416       .  A
C698        H707   1.083       .  S
C699        C700   1.421       .  A
C699        S703   1.800       .  S
C700        C701   1.410       .  A
C701        C702   1.418       .  A
C701        H708   1.083       .  S
C702        S704   1.803       .  S
S703        H706   1.399       .  S
S704        H705   1.405       .  S
C709        C710   1.401       .  A
C709        C714   1.410       .  A
C710        C711   1.400       .  A
C710        H719   1.082       .  S
C711        C712   1.413       .  A
C711        S715   1.800       .  S
C712        C713   1.406       .  A
C713        C714   1.400       .  A
C713        H720   1.083       .  S
C714        S716   1.802       .  S
S715        H718   1.401       .  S
S716        H717   1.405       .  S
C721        C722   1.406       .  A
C721        C726   1.415       .  A
C722        C723   1.407       .  A
C722        H731   1.083       .  S
C723        C724   1.414       .  A
C723        S727   1.803       .  S
C724        C725   1.401       .  A
C725        C726   1.395       .  A
C725        H732   1.085       .  S
C726        S728   1.804       .  S
S727        H730   1.406       .  S
S728        H729   1.405       .  S
C733        C734   1.409       .  A
C733        C738   1.404       .  A
C734        C735   1.393       .  A
C734        H743   1.085       .  S
C735        C736   1.404       .  A
C735        S739   1.802       .  S
C736        C737   1.412       .  A
C737        C738   1.410       .  A
C737        H744   1.083       .  S
C738        S740   1.801       .  S
S739        H742   1.403       .  S
S740        H741   1.407       .  S
C745        C746   1.409       .  A
C745        C750   1.410       .  A
C746        C747   1.393       .  A
C746        H755   1.084       .  S
C747        C748   1.406       .  A
C747        S751   1.804       .  S
C748        C749   1.411       .  A
C749        C750   1.409       .  A
C749        H756   1.083       .  S
C750        S752   1.799       .  S
S751        H754   1.403       .  S
S752        H753   1.405       .  S
C757        C758   1.401       .  A
C757        C762   1.412       .  A
C758        C759   1.406       .  A
C758        H767   1.083       .  S
C759        C760   1.418       .  A
C759        S763   1.797       .  S
C760        C761   1.404       .  A
C761        C762   1.398       .  A
C761        H768   1.084       .  S
C762        S764   1.801       .  S
S763        H766   1.406       .  S
S764        H765   1.406       .  S
C769        C770   1.403       .  A
C769        C774   1.412       .  A
C770        C771   1.408       .  A
C770        H779   1.084       .  S
C771        C772   1.418       .  A
C771        S775   1.794       .  S
C772        C773   1.405       .  A
C773        C774   1.399       .  A
C773        H780   1.084       .  S
C774        S776   1.804       .  S
S775        H778   1.405       .  S
S776        H777   1.405       .  S
C781        C782   1.401       .  A
C781        C786   1.424       .  A
C782        C783   1.406       .  A
C782        H791   1.084       .  S
C783        C784   1.421       .  A
C783        S787   1.805       .  S
C784        C785   1.396       .  A
C785        C786   1.398       .  A
C785        H792   1.085       .  S
C786        S788   1.808       .  S
S787        H790   1.402       .  S
S788        H789   1.400       .  S
C793        C794   1.401       .  A
C793        C798   1.419       .  A
C794        C795   1.399       .  A
C794        H803   1.084       .  S
C795        C796   1.418       .  A
C795        S799   1.807       .  S
C796        C797   1.401       .  A
C797        C798   1.406       .  A
C797        H804   1.084       .  S
C798        S800   1.802       .  S
S799        H802   1.405       .  S
S800        H801   1.402       .  S
