geometry optimzed in LAMMPS
_audit_creation_date              2020-11-30 
_audit_creation_method            'lammps2cif' 
_symmetry_space_group_name_H-M    'P1' 
_symmetry_Int_Tables_number       1 
_symmetry_cell_setting            triclinic 
loop_ 
_symmetry_equiv_pos_as_xyz 
  x,y,z 
_cell_length_a                    42.26148253512285 
_cell_length_b                    41.89603034262874 
_cell_length_c                    33.51532325658019 
_cell_angle_alpha                 92.6054901626706 
_cell_angle_beta                  91.9218350706151 
_cell_angle_gamma                 120.49529655793366 
loop_ 
_atom_site_label 
_atom_site_type_symbol 
_atom_site_fract_x 
_atom_site_fract_y 
_atom_site_fract_z 
_atom_site_charge 
O1          O  0.44147368  0.42412411  0.33365869    -0.79370
O2          O  0.45443884  0.35635761  0.44247615    -0.79390
O3          O  0.36610953  0.33102993  0.42449006    -0.79400
O4          O  0.51898972  0.39197610  0.35806737    -0.79340
O5          O  0.38838036  0.30203885  0.46111493    -0.79470
O6          O  0.48397726  0.41029658  0.38288395    -0.79390
O7          O  0.49583773  0.34409207  0.41934175    -0.79370
O8          O  0.41756738  0.39747219  0.38916418    -0.79410
C9          C  0.42955120  0.42576589  0.36757648     1.10320
C10         C  0.48418209  0.35641272  0.44700079     1.10200
C11         C  0.36861814  0.31684060  0.45780170     1.10340
C12         C  0.01297290  0.41858845  0.37650796     1.10220
O13         O  0.47230273  0.38372900  0.29849208    -0.79370
O14         O  0.37028485  0.26517177  0.39031481    -0.79450
O15         O  0.35567344  0.35454174  0.33939711    -0.79380
O16         O  0.45604780  0.28314416  0.36210103    -0.79360
O17         O  0.43506631  0.28097345  0.42242032    -0.79420
O18         O  0.39698731  0.35329198  0.30193594    -0.79380
O19         O  0.47591940  0.33267405  0.30091498    -0.79340
O20         O  0.35326825  0.28981459  0.34533340    -0.79410
Co21       Co  0.44046681  0.37919349  0.34372719     1.51530
Co22       Co  0.41299353  0.31294476  0.41385740     1.51690
Co23       Co  0.38872286  0.34212274  0.36718659     1.51570
Co24       Co  0.48313953  0.33719057  0.36016146     1.51470
O25         O  0.43253862  0.33284745  0.36403884    -1.41310
C26         C  0.48039212  0.36061162  0.28280710     1.10250
C27         C  0.34739678  0.26157566  0.36299220     1.10340
C28         C  0.36744141  0.35484563  0.30465384     1.10270
C29         C  0.44639500  0.26798075  0.39488670     1.10250
O30         O  0.45369721  0.14717890  0.30005260    -0.79370
O31         O  0.43448844  0.03880736  0.41810374    -0.79390
O32         O  0.00012945  0.10122382  0.37013129    -0.79400
O33         O  0.35422941  0.03830558  0.33132174    -0.79340
O34         O  0.48843275  0.09791316  0.44292580    -0.79470
O35         O  0.39352982  0.08157427  0.29502115    -0.79390
O36         O  0.39697788  0.01643391  0.36555662    -0.79370
O37         O  0.48061209  0.11622530  0.31280150    -0.79410
C38         C  0.47283510  0.13363432  0.28888810     1.10320
C39         C  0.41881382  0.01423402  0.38959560     1.10200
C40         C  0.00705691  0.09260956  0.40355689     1.10340
C41         C  0.36662465  0.04965886  0.29784671     1.10220
O42         O  0.36221241  0.10495526  0.35356351    -0.79370
O43         O  0.44946746  0.13896417  0.45030880    -0.79450
O44         O  0.48646334  0.18159100  0.36115525    -0.79380
O45         O  0.38116468  0.03669698  0.44553749    -0.79360
O46         O  0.43022815  0.07589299  0.48509417    -0.79420
O47         O  0.43000109  0.16371509  0.37546079    -0.79380
O48         O  0.35945812  0.07825905  0.40821248    -0.79340
O49         O  0.50273486  0.15839021  0.42514604    -0.79410
Co50       Co  0.41185591  0.12225389  0.33601617     1.51530
Co51       Co  0.43724321  0.08850958  0.43182376     1.51690
Co52       Co  0.48766182  0.13426931  0.36932616     1.51570
Co53       Co  0.38016794  0.04907999  0.38578181     1.51470
O54         O  0.43171103  0.09754649  0.37482696    -1.41310
C55         C  0.34721051  0.09273403  0.38537432     1.10250
C56         C  0.48401960  0.16025298  0.45299636     1.10340
C57         C  0.46273522  0.18911607  0.37372865     1.10270
C58         C  0.39873041  0.04745227  0.48036218     1.10250
O59         O  0.01172944  0.37727753  0.11334649    -0.79370
O60         O  0.14983366  0.48432297  0.05676074    -0.79390
O61         O  0.09255915  0.48954286  0.16527994    -0.79400
O62         O  0.08856248  0.40029533  0.03218891    -0.79340
O63         O  0.11795404  0.50810038  0.10875634    -0.79470
O64         O  0.04203655  0.35698251  0.05897740    -0.79390
O65         O  0.15897979  0.43741692  0.04888359    -0.79370
O66         O  0.03776342  0.43650715  0.12144996    -0.79410
C67         C  0.00913181  0.40570095  0.11387844     1.10320
C68         C  0.16266225  0.46742793  0.03734700     1.10200
C69         C  0.09027665  0.00548502  0.15185864     1.10340
C70         C  0.05552042  0.37570927  0.02956028     1.10220
O71         O  0.09002017  0.35052134  0.11870358    -0.79370
O72         O  0.15454161  0.49427051  0.17533651    -0.79450
O73         O  0.04718288  0.42232128  0.19687772    -0.79380
O74         O  0.14989417  0.41052591  0.12820971    -0.79360
O75         O  0.18567294  0.46948991  0.12048373    -0.79420
O76         O  0.05688502  0.37633815  0.17837716    -0.79380
O77         O  0.12042965  0.36177674  0.06312985    -0.79340
O78         O  0.11657517  0.43810595  0.18999115    -0.79410
Co79       Co  0.05701793  0.37362693  0.11655245     1.51530
Co80       Co  0.14839656  0.48519248  0.11487521     1.51690
Co81       Co  0.07690587  0.43563712  0.15393117     1.51570
Co82       Co  0.11702980  0.40357008  0.08113167     1.51470
O83         O  0.10008596  0.43321624  0.10739580    -1.41310
C84         C  0.10628814  0.34160184  0.09212603     1.10250
C85         C  0.14233837  0.47015689  0.20100752     1.10340
C86         C  0.04216070  0.39019092  0.20141914     1.10270
C87         C  0.18138162  0.43876703  0.12982030     1.10250
O88         O  0.18959421  0.16563219  0.35003797    -0.79370
O89         O  0.13213617  0.00354063  0.38891616    -0.79390
O90         O  0.16497634  0.05211545  0.30100704    -0.79400
O91         O  0.09319816  0.07244558  0.42106060    -0.79340
O92         O  0.18672195  0.02347294  0.33569567    -0.79470
O93         O  0.12733358  0.11673973  0.38142378    -0.79390
O94         O  0.10794653  0.03480186  0.36416368    -0.79370
O95         O  0.16464937  0.11613117  0.30938669    -0.79410
C96         C  0.17182306  0.14885633  0.31740061     1.10320
C97         C  0.10466115  0.00412901  0.37268691     1.10200
C98         C  0.17207705  0.02647450  0.30332940     1.10340
C99         C  0.09650360  0.09611386  0.39698380     1.10220
O100        O  0.18076444  0.17250438  0.43076129    -0.79370
O101        O  0.24003922  0.07765282  0.39559534    -0.79450
O102        O  0.24255322  0.15500716  0.34199433    -0.79380
O103        O  0.13079146  0.04302108  0.44611349    -0.79360
O104        O  0.18736323  0.05519703  0.45104352    -0.79420
O105        O  0.23679490  0.15888329  0.40732427    -0.79380
O106        O  0.16171903  0.11712262  0.45309592    -0.79340
O107        O  0.24118805  0.09022182  0.33190641    -0.79410
Co108      Co  0.18272781  0.13499973  0.39724190     1.51530
Co109      Co  0.18674096  0.04330251  0.39252946     1.51630
Co110      Co  0.20144005  0.10231959  0.32359323     1.51570
Co111      Co  0.13673735  0.07709475  0.40444422     1.51470
O112        O  0.18166430  0.08796784  0.37766893    -1.41310
C113        C  0.16847096  0.15087509  0.45888585     1.10250
C114        C  0.25712464  0.08924122  0.36429779     1.10340
C115        C  0.25631249  0.17007113  0.37719547     1.10270
C116        C  0.15663649  0.04327621  0.46599675     1.10250
O117        O  0.02222291  0.09142860  0.18021501    -0.79370
O118        O  0.11978066  0.16106372  0.05946679    -0.79390
O119        O  0.02979524  0.18304884  0.09797128    -0.79400
O120        O  0.12966240  0.12661342  0.15135249    -0.79340
O121        O  0.05601644  0.16120435  0.05914565    -0.79470
O122        O  0.07227429  0.10148678  0.12571903    -0.79390
O123        O  0.16840073  0.18100090  0.10092456    -0.79370
O124        O  0.01486065  0.12303303  0.13343298    -0.79410
C125        C  0.00209518  0.09415584  0.15356460     1.10320
C126        C  0.15146011  0.16633326  0.06689336     1.10200
C127        C  0.02964316  0.16647547  0.06527206     1.10340
C128        C  0.10044120  0.09920734  0.13419421     1.10220
O129        O  0.09081106  0.12620314  0.20670845    -0.79370
O130        O  0.09601876  0.23717062  0.09431561    -0.79450
O131        O  0.01473697  0.17737185  0.17914445    -0.79380
O132        O  0.16870808  0.23512544  0.15891911    -0.79360
O133        O  0.16050479  0.23799701  0.09392996    -0.79420
O134        O  0.05273324  0.16235565  0.20756693    -0.79380
O135        O  0.13640284  0.18296146  0.21238885    -0.79340
O136        O  0.08495584  0.23290679  0.15862118    -0.79410
Co137      Co  0.06322792  0.13333559  0.16269474     1.51530
Co138      Co  0.10715782  0.19741325  0.07966421     1.51690
Co139      Co  0.05355035  0.17846683  0.14895057     1.51570
Co140      Co  0.14758839  0.18158034  0.15516514     1.51470
O141        O  0.09888822  0.17660863  0.13414684    -1.41310
C142        C  0.11754709  0.15225117  0.22732703     1.10250
C143        C  0.09435676  0.25153889  0.12788530     1.10340
C144        C  0.02486662  0.16707494  0.20971276     1.10270
C145        C  0.17791717  0.25274520  0.12795974     1.10250
O146        O  0.42376926  0.43964899  0.17471327    -0.79370
O147        O  0.34701261  0.45893845  0.04724553    -0.79390
O148        O  0.33320065  0.35033208  0.07895554    -0.79400
O149        O  0.38300726  0.50719685  0.13897393    -0.79340
O150        O  0.34985569  0.39800618  0.04357994    -0.79470
O151        O  0.40946127  0.47587422  0.11806871    -0.79390
O152        O  0.32572702  0.48651121  0.08535903    -0.79370
O153        O  0.39552071  0.40098400  0.12142459    -0.79410
C154        C  0.42494000  0.42157752  0.14443534     1.10320
C155        C  0.34044659  0.48452525  0.05365652     1.10200
C156        C  0.34574266  0.36648798  0.04727637     1.10340
C157        C  0.40986952  0.50617988  0.12406434     1.10220
O158        O  0.38889975  0.47192640  0.19614724    -0.79370
O159        O  0.27588655  0.35711668  0.07079886    -0.79450
O160        O  0.34304084  0.34337170  0.16039181    -0.79380
O161        O  0.27734402  0.43184914  0.13814195    -0.79360
O162        O  0.27145782  0.41927909  0.07264794    -0.79420
O163        O  0.35385129  0.39502688  0.19369159    -0.79380
O164        O  0.33195656  0.45671333  0.19538697    -0.79340
O165        O  0.28507741  0.35291000  0.13534651    -0.79410
Co166      Co  0.38037046  0.43487852  0.15218511     1.51530
Co167      Co  0.31296004  0.40948204  0.06161288     1.51690
Co168      Co  0.33928185  0.37951792  0.13105505     1.51570
Co169      Co  0.32950397  0.46736233  0.13890713     1.51470
O170        O  0.33625343  0.42453941  0.11800559    -1.41310
C171        C  0.36349834  0.47313229  0.21286699     1.10250
C172        C  0.26434044  0.34177844  0.10315363     1.10340
C173        C  0.34909430  0.36195146  0.19365851     1.10270
C174        C  0.25831192  0.42216914  0.10549868     1.10250
C175        C  0.48235540  0.06012612  0.13819508    -0.15670
C176        C  0.46446258  0.03846284  0.16795291    -0.30840
H177        H  0.46894315  0.05318922  0.10823468     0.13360
H178        H  0.47779417  0.04514420  0.19791916     0.13930
C179        C  0.21185961  0.28945269  0.13212401    -0.15670
C180        C  0.22708105  0.30880394  0.10068089    -0.30840
H181        H  0.22628648  0.29934127  0.16157412     0.13360
H182        H  0.21264751  0.29887515  0.07123668     0.13930
C183        C  0.12776355  0.14372252  0.26600052    -0.15670
C184        C  0.15899225  0.16603012  0.28848508    -0.30840
H185        H  0.11059994  0.11515708  0.27369770     0.13360
H186        H  0.17642934  0.19507050  0.28290307     0.13930
C187        C  0.16859716  0.15669698  0.03408621    -0.15670
C188        C  0.16134273  0.16227821  0.49864790    -0.30840
H189        H  0.17106872  0.13223540  0.03591893     0.13360
H190        H  0.15840133  0.14386036  0.52188148     0.13930
C191        C  0.17976600  0.48255295  0.00016262    -0.15670
C192        C  0.14771472  0.02526147  0.50383252    -0.30840
H193        H  0.16954573  0.46393555  0.97319965     0.13360
H194        H  0.11909740  0.01276679  0.51107763     0.13930
C195        C  0.16951189  0.00558956  0.26539894    -0.15670
C196        C  0.14072449  0.97167219  0.25354447    -0.30840
H197        H  0.18711073  0.02263949  0.24288505     0.13360
H198        H  0.13408611  0.46251542  0.26559892     0.13930
C199        C  0.08742065  0.03909229  0.15659619    -0.15670
C200        C  0.09846503  0.06348438  0.12785557    -0.30840
H201        H  0.07778110  0.04478913  0.18416841     0.13360
H202        H  0.10871814  0.05843326  0.10042959     0.13930
C203        C  0.11013403  0.30905051  0.09665682    -0.15670
C204        C  0.09927137  0.28894741  0.12900370    -0.30840
H205        H  0.11966513  0.29986899  0.07131350     0.13360
H206        H  0.09066824  0.29850018  0.15487134     0.13930
C207        C  0.21351979  0.43489848  0.13530667    -0.15670
C208        C  0.22178050  0.41819882  0.10550760    -0.30840
H209        H  0.23340401  0.45107357  0.16007897     0.13360
H210        H  0.20311215  0.40528343  0.07899809     0.13930
C211        C  0.46115420  0.42898137  0.13483677    -0.15670
C212        C  0.46889500  0.40280672  0.12377434    -0.30840
H213        H  0.48348020  0.45664680  0.14511151     0.13360
H214        H  0.44737689  0.37481595  0.11360134     0.13930
C215        C  0.00951331  0.17272941  0.49153916    -0.15670
C216        C  0.99914970  0.15262231  0.03389201    -0.30840
H217        H  0.03820609  0.19274692  0.48757521     0.13360
H218        H  0.97294523  0.12810208  0.03860866     0.13930
C219        C  0.48867088  0.14077089  0.25000254    -0.15670
C220        C  0.00579755  0.15902620  0.24767639    -0.30840
H221        H  0.47810473  0.11771656  0.22734831     0.13360
H222        H  0.02173352  0.15825742  0.27335407     0.13930
C223        C  0.35003427  0.51111458  0.02285146    -0.15670
C224        C  0.38305942  0.02570564  0.51444599    -0.30840
H225        H  0.36392510  0.54059077  0.03190300     0.13360
H226        H  0.38930197  0.04031754  0.54389384     0.13930
C227        C  0.37277778  0.49784321  0.24903023    -0.15670
C228        C  0.35028940  0.02617139  0.26071321    -0.30840
H229        H  0.39959010  0.50805522  0.26447165     0.13360
H230        H  0.35525543  0.04090229  0.23362020     0.13930
C231        C  0.06511870  0.09980384  0.38636333    -0.15670
C232        C  0.03608805  0.08444491  0.40844053    -0.30840
H233        H  0.06695701  0.11751645  0.36273540     0.13360
H234        H  0.03542268  0.06879554  0.43375095     0.13930
C235        C  0.29553704  0.09916050  0.36363768    -0.15670
C236        C  0.31265258  0.09148472  0.39287451    -0.30840
H237        H  0.30884587  0.10967435  0.33611567     0.13360
H238        H  0.29913711  0.07992991  0.41997782     0.13930
C239        C  0.03128243  0.37131795  0.99527989    -0.15670
C240        C  0.50546902  0.37036574  0.48491927    -0.30840
H241        H  0.01525869  0.38480528  0.99903355     0.13360
H242        H  0.52900184  0.39839806  0.48563440     0.13930
C243        C  0.02008583  0.37008977  0.23388030    -0.15670
C244        C  0.49866867  0.36961816  0.24470094    -0.30840
H245        H  0.02870910  0.35540928  0.25322407     0.13360
H246        H  0.50451599  0.39583684  0.23327021     0.13930
C247        C  0.43007760  0.45956318  0.38256705    -0.15670
C248        C  0.42277012  0.47919715  0.35722883    -0.30840
H249        H  0.43203143  0.46584633  0.41468571     0.13360
H250        H  0.41683578  0.47018155  0.32554669     0.13930
C251        C  0.44752274  0.23421427  0.40035505    -0.15670
C252        C  0.47110657  0.22737270  0.38102801    -0.30840
H253        H  0.42638708  0.21317487  0.41737491     0.13360
H254        H  0.49360447  0.24906450  0.36599730     0.13930
C255        C  0.04627141  0.45645158  0.38110249    -0.15670
C256        C  0.07988965  0.46365507  0.37111324    -0.30840
H257        H  0.04237423  0.47954320  0.38946342     0.13360
H258        H  0.08418045  0.44072948  0.36334172     0.13930
C259        C  0.31258494  0.22525252  0.35373088    -0.15670
C260        C  0.29460858  0.20265505  0.38305123    -0.30840
H261        H  0.29898520  0.21961580  0.32405190     0.13360
H262        H  0.30703047  0.21040860  0.41344546     0.13930
C263        C  0.35223675  0.32075656  0.49496683    -0.15670
C264        C  0.35666576  0.34988238  0.01489498    -0.30840
H265        H  0.36263632  0.31547165  0.52246433     0.13360
H266        H  0.36945858  0.33394453  0.02275059     0.13930
C267        C  0.34966951  0.35924848  0.26798446    -0.15670
C268        C  0.35338746  0.34699371  0.23147301    -0.30840
H269        H  0.33734553  0.37647991  0.27058030     0.13360
H270        H  0.36387106  0.32809651  0.22935542     0.13930
O271        O  0.44683438  0.43085764  0.83478988    -0.79370
O272        O  0.46352661  0.34707460  0.95573489    -0.79390
O273        O  0.35632533  0.33509111  0.90998523    -0.79400
O274        O  0.51018861  0.37920762  0.85910936    -0.79340
O275        O  0.40285182  0.35249688  0.95254564    -0.79470
O276        O  0.48880152  0.41391346  0.88411027    -0.79390
O277        O  0.48953473  0.32716109  0.91251335    -0.79370
O278        O  0.40830815  0.39925317  0.88059421    -0.79410
C279        C  0.42706981  0.42977619  0.86315689     1.10320
C280        C  0.48950943  0.34210670  0.94652743     1.10200
C281        C  0.37132719  0.34734063  0.94486185     1.10340
C282        C  0.01173114  0.40944647  0.88550736     1.10220
O283        O  0.47181627  0.38421380  0.80323166    -0.79370
O284        O  0.36138727  0.27718226  0.91090367    -0.79450
O285        O  0.34942105  0.34626535  0.83175527    -0.79380
O286        O  0.42825873  0.27419750  0.85680920    -0.79360
O287        O  0.42312230  0.27319381  0.92163166    -0.79420
O288        O  0.40065381  0.35954581  0.80369965    -0.79380
O289        O  0.44827664  0.32442895  0.80273023    -0.79340
O290        O  0.36128999  0.28919204  0.84728291    -0.79410
Co291      Co  0.44290662  0.38528806  0.84931976     1.51530
Co292      Co  0.41379073  0.31486460  0.93223841     1.51690
Co293      Co  0.38650806  0.34304316  0.86216295     1.51570
Co294      Co  0.46646611  0.32651207  0.85829853     1.51470
O295        O  0.43050606  0.34010041  0.87974803    -1.41310
C296        C  0.46371644  0.35364289  0.78477418     1.10250
C297        C  0.34824953  0.26682302  0.87458801     1.10340
C298        C  0.36701616  0.35190401  0.80055780     1.10270
C299        C  0.42214900  0.25745089  0.88825439     1.10250
O300        O  0.43327707  0.13877787  0.78647446    -0.79370
O301        O  0.44211308  0.04644637  0.86875744    -0.79390
O302        O  0.00145444  0.10548230  0.87146884    -0.79400
O303        O  0.36287700  0.03538529  0.82714739    -0.79340
O304        O  0.48849896  0.07542205  0.93463994    -0.79470
O305        O  0.41843041  0.07140321  0.80880728    -0.79390
O306        O  0.38709803  0.01006091  0.88633210    -0.79370
O307        O  0.47850271  0.13243256  0.81306874    -0.79410
C308        C  0.46433660  0.14132374  0.78394168     1.10320
C309        C  0.41543533  0.01427785  0.86985965     1.10200
C310        C  0.00745923  0.08871000  0.89982615     1.10340
C311        C  0.38753650  0.04246680  0.80306486     1.10220
O312        O  0.36764326  0.09714026  0.82253351    -0.79370
O313        O  0.46121331  0.11712586  0.96171895    -0.79450
O314        O  0.47714319  0.18364853  0.87326476    -0.79380
O315        O  0.37380716  0.05635648  0.94466781    -0.79360
O316        O  0.41855447  0.04507806  0.95048460    -0.79420
O317        O  0.41862107  0.15669179  0.86058240    -0.79380
O318        O  0.35096435  0.08139953  0.88317279    -0.79340
O319        O  0.50318554  0.15957185  0.92912689    -0.79410
Co320      Co  0.42079773  0.11529543  0.83549584     1.51530
Co321      Co  0.45186788  0.08302172  0.91452543     1.51690
Co322      Co  0.48203992  0.13880345  0.87437549     1.51570
Co323      Co  0.37219311  0.04951147  0.88588789     1.51470
O324        O  0.42331365  0.09890733  0.88721491    -1.41310
C325        C  0.34605398  0.09191621  0.84997783     1.10250
C326        C  0.49018940  0.14802469  0.96175466     1.10340
C327        C  0.44826129  0.18513813  0.87171467     1.10270
C328        C  0.39104968  0.04470948  0.96464975     1.10250
O329        O  0.01240312  0.39760601  0.62008282    -0.79370
O330        O  0.16140844  0.49532079  0.57629570    -0.79390
O331        O  0.07282869  0.48049497  0.60439461    -0.79400
O332        O  0.05175256  0.39458247  0.54878171    -0.79340
O333        O  0.12903035  0.51669980  0.63107335    -0.79470
O334        O  0.03001068  0.34940761  0.58782372    -0.79390
O335        O  0.10932236  0.45858450  0.54216491    -0.79370
O336        O  0.02146432  0.44686275  0.65774550    -0.79410
C337        C  0.00051095  0.41862497  0.63431338     1.10320
C338        C  0.13790189  0.48956973  0.54806315     1.10200
C339        C  0.11032840  0.00930142  0.62019377     1.10340
C340        C  0.02804242  0.36195877  0.55500582     1.10220
O341        O  0.08676339  0.36441820  0.64514260    -0.79370
O342        O  0.14037388  0.47448556  0.69010193    -0.79450
O343        O  0.04745894  0.40785775  0.69173352    -0.79380
O344        O  0.15869119  0.43173976  0.57045138    -0.79360
O345        O  0.16990399  0.44991501  0.63459571    -0.79420
O346        O  0.01763769  0.34933039  0.66685284    -0.79380
O347        O  0.09739675  0.36597351  0.58042739    -0.79340
O348        O  0.09269657  0.48200368  0.68815732    -0.79410
Co349      Co  0.05412724  0.38522828  0.63595140     1.51530
Co350      Co  0.14722754  0.48047987  0.63272938     1.51690
Co351      Co  0.06214823  0.44315054  0.64389552     1.51570
Co352      Co  0.10364307  0.41390282  0.56320938     1.51470
O353        O  0.09781530  0.43197594  0.61797094    -1.41310
C354        C  0.09636695  0.35308051  0.61437110     1.10250
C355        C  0.12161597  0.48646400  0.70635967     1.10340
C356        C  0.02294706  0.37315074  0.69493656     1.10270
C357        C  0.17773881  0.43820453  0.60338530     1.10250
O358        O  0.19576302  0.17084272  0.84930205    -0.79370
O359        O  0.12980145  0.00897677  0.88865080    -0.79390
O360        O  0.17094341  0.05730367  0.79979470    -0.79400
O361        O  0.10008326  0.08553616  0.92533568    -0.79340
O362        O  0.18653765  0.02591280  0.83889818    -0.79470
O363        O  0.13149622  0.12309373  0.87893175    -0.79390
O364        O  0.10809502  0.04355992  0.86692818    -0.79370
O365        O  0.17503467  0.12400720  0.80493821    -0.79410
C366        C  0.18288305  0.15679295  0.81403687     1.10320
C367        C  0.10304522  0.01175564  0.87345357     1.10200
C368        C  0.17228882  0.02850212  0.80628956     1.10340
C369        C  0.10180208  0.10550540  0.89739352     1.10220
O370        O  0.18587557  0.17714573  0.93006521    -0.79370
O371        O  0.23892429  0.07949749  0.89911953    -0.79450
O372        O  0.24896841  0.15827215  0.84581729    -0.79380
O373        O  0.13140346  0.04906299  0.94768251    -0.79360
O374        O  0.18767128  0.06180647  0.95026738    -0.79420
O375        O  0.23828201  0.15943872  0.90994636    -0.79380
O376        O  0.16977156  0.12391671  0.95538669    -0.79340
O377        O  0.24476977  0.09126912  0.83546487    -0.79410
Co378      Co  0.18553766  0.13883940  0.89624604     1.51530
Co379      Co  0.18583629  0.04697163  0.89372902     1.51630
Co380      Co  0.20782498  0.10666397  0.82415094     1.51570
Co381      Co  0.14069792  0.08493973  0.90686658     1.51470
O382        O  0.18307906  0.09155065  0.87639732    -1.41310
C383        C  0.17748101  0.15793314  0.96027182     1.10250
C384        C  0.25796108  0.08939325  0.86925115     1.10340
C385        C  0.25983190  0.17216349  0.88195920     1.10270
C386        C  0.15755222  0.04869990  0.96586092     1.10250
O387        O  0.03538672  0.10848407  0.67460986    -0.79370
O388        O  0.13623991  0.21811685  0.56065818    -0.79390
O389        O  0.01214587  0.17142340  0.59781528    -0.79400
O390        O  0.11185952  0.11278340  0.61855448    -0.79340
O391        O  0.05913243  0.18248782  0.56246841    -0.79470
O392        O  0.10035568  0.10960833  0.68235962    -0.79390
O393        O  0.12403840  0.16191185  0.56524207    -0.79370
O394        O  0.03081672  0.11878366  0.61100623    -0.79410
C395        C  0.01956683  0.09743659  0.63937493     1.10320
C396        C  0.13683536  0.19006111  0.54564922     1.10200
C397        C  0.02494358  0.17353020  0.56402841     1.10340
C398        C  0.10456244  0.09554030  0.64993509     1.10220
O399        O  0.13710208  0.18564988  0.71675440    -0.79370
O400        O  0.10190275  0.25574011  0.58944567    -0.79450
O401        O  0.02445895  0.16215045  0.67330605    -0.79380
O402        O  0.17859519  0.22315733  0.62214412    -0.79360
O403        O  0.14518056  0.24654894  0.64315378    -0.79420
O404        O  0.07389537  0.18589049  0.71203939    -0.79380
O405        O  0.16579696  0.16877275  0.67530244    -0.79340
O406        O  0.07106126  0.22842928  0.64130763    -0.79410
Co407      Co  0.08741895  0.14949076  0.69346911     1.51530
Co408      Co  0.10305707  0.21335132  0.60607448     1.51690
Co409      Co  0.05302410  0.17250358  0.62449020     1.51570
Co410      Co  0.14240353  0.16719526  0.62083991     1.51470
O411        O  0.09949725  0.17215921  0.63940672    -1.41310
C412        C  0.16211413  0.17849719  0.71054055     1.10250
C413        C  0.08564190  0.25699163  0.62011817     1.10340
C414        C  0.04043739  0.17523117  0.70744903     1.10270
C415        C  0.17598701  0.25067525  0.63603048     1.10250
O416        O  0.40800025  0.43811822  0.67265679    -0.79370
O417        O  0.35380310  0.43227503  0.55758695    -0.79390
O418        O  0.35066231  0.35898150  0.56652390    -0.79400
O419        O  0.38935261  0.50347026  0.63214891    -0.79340
O420        O  0.30239940  0.36114844  0.53980014    -0.79470
O421        O  0.39467758  0.49205637  0.69431474    -0.79390
O422        O  0.33919946  0.47437723  0.56910288    -0.79370
O423        O  0.39913025  0.43023184  0.60661765    -0.79410
C424        C  0.42025722  0.44014264  0.63809797     1.10320
C425        C  0.35618757  0.46236103  0.54916467     1.10200
C426        C  0.32682298  0.35129139  0.53682893     1.10340
C427        C  0.40879991  0.51009245  0.66410825     1.10220
O428        O  0.32280892  0.43879174  0.71859724    -0.79370
O429        O  0.26635440  0.35947761  0.61263746    -0.79450
O430        O  0.36699170  0.36996783  0.65726442    -0.79380
O431        O  0.28110488  0.44695600  0.62165826    -0.79360
O432        O  0.27659991  0.41290855  0.56700409    -0.79420
O433        O  0.33559857  0.38278396  0.69807642    -0.79380
O434        O  0.33120751  0.48688474  0.68643895    -0.79340
O435        O  0.30369479  0.34140609  0.62421331    -0.79410
Co436      Co  0.36290580  0.43646197  0.69315871     1.51530
Co437      Co  0.31144525  0.39594917  0.58725615     1.51690
Co438      Co  0.34855976  0.38933905  0.61247301     1.51570
Co439      Co  0.33518107  0.47449930  0.62818746     1.51470
O440        O  0.33474455  0.42639243  0.63933615    -1.41310
C441        C  0.32350334  0.46920952  0.71811527     1.10250
C442        C  0.27143997  0.33455775  0.62409765     1.10340
C443        C  0.35404261  0.36739734  0.69160059     1.10270
C444        C  0.26312476  0.42781643  0.58976410     1.10250
C445        C  0.47708134  0.05150665  0.62863312    -0.15670
C446        C  0.46278206  0.02794969  0.65751791    -0.30840
H447        H  0.46072745  0.04804194  0.60124872     0.13360
H448        H  0.47889186  0.03209973  0.68532817     0.13930
C449        C  0.20749546  0.28920684  0.63828217    -0.15670
C450        C  0.24185314  0.29724430  0.63300527    -0.30840
H451        H  0.20158619  0.31162340  0.64054221     0.13360
H452        H  0.24810167  0.27505662  0.63206232     0.13930
C453        C  0.18209956  0.17358380  0.74477362    -0.15670
C454        C  0.17570007  0.17730830  0.78349384    -0.30840
H455        H  0.19774468  0.16021552  0.73762932     0.13360
H456        H  0.16118679  0.19154463  0.79190699     0.13930
C457        C  0.15261520  0.18890799  0.50660318    -0.15670
C458        C  0.17427569  0.17377496  0.99954795    -0.30840
H459        H  0.15512691  0.20786879  0.48424652     0.13360
H460        H  0.17213108  0.19853827  0.99898967     0.13930
C461        C  0.14176449  0.51749797  0.52076595    -0.15670
C462        C  0.15178216  0.03043549  0.00267500    -0.30840
H463        H  0.11624603  0.51541679  0.50974006     0.13360
H464        H  0.13060516  0.02955478  0.02093543     0.13930
C465        C  0.15887660  0.99865261  0.77424479    -0.15670
C466        C  0.12983558  0.99172187  0.75040731    -0.30840
H467        H  0.17422325  0.98474297  0.76843220     0.13360
H468        H  0.11163257  0.50395833  0.76432212     0.13930
C469        C  0.10914378  0.04363598  0.61729275    -0.15670
C470        C  0.10370490  0.05977850  0.64999725    -0.30840
H471        H  0.11176875  0.05503180  0.58832278     0.13360
H472        H  0.09993289  0.04695015  0.67827532     0.13930
C473        C  0.10469905  0.32281100  0.61482200    -0.15670
C474        C  0.08398266  0.29077445  0.63195963    -0.30840
H475        H  0.12411583  0.32405972  0.59358488     0.13360
H476        H  0.06357624  0.28842867  0.65234106     0.13930
C477        C  0.21134930  0.43545492  0.60753427    -0.15670
C478        C  0.22666693  0.42431439  0.57948017    -0.30840
H479        H  0.22525824  0.44461785  0.63724715     0.13360
H480        H  0.21327448  0.41383581  0.54972856     0.13930
C481        C  0.45844778  0.44902019  0.63656067    -0.15670
C482        C  0.46604242  0.42340579  0.62174978    -0.30840
H483        H  0.47886006  0.47231009  0.65623406     0.13360
H484        H  0.44505317  0.39901112  0.60382580     0.13930
C485        C  0.00676217  0.16573884  0.99745084    -0.15670
C486        C  0.99914855  0.16169525  0.52821592    -0.30840
H487        H  0.03354897  0.19021694  0.99430409     0.13360
H488        H  0.97038479  0.14203962  0.53231888     0.13930
C489        C  0.48284953  0.15039522  0.74640452    -0.15670
C490        C  0.02017648  0.17282656  0.74278355    -0.30840
H491        H  0.46757923  0.14994648  0.71940113     0.13360
H492        H  0.03574054  0.18187833  0.77164697     0.13930
C493        C  0.37776093  0.48337187  0.51570271    -0.15670
C494        C  0.37744456  0.02821595  0.00251409    -0.30840
H495        H  0.39679839  0.47633184  0.50257610     0.13360
H496        H  0.35734591  0.03301522  0.01677828     0.13930
C497        C  0.32309330  0.48761549  0.75698972    -0.15670
C498        C  0.38045810  0.01905662  0.76697550    -0.30840
H499        H  0.32069239  0.47321953  0.78387576     0.13360
H500        H  0.40152517  0.03042461  0.74542726     0.13930
C501        C  0.06937221  0.10687928  0.88527843    -0.15670
C502        C  0.03748134  0.08207086  0.89897159    -0.30840
H503        H  0.07208563  0.12969524  0.86858408     0.13360
H504        H  0.03520772  0.05962800  0.91609838     0.13930
C505        C  0.29473201  0.09513638  0.87412532    -0.15670
C506        C  0.31430903  0.09640239  0.84316686    -0.30840
H507        H  0.30428400  0.09419565  0.90439872     0.13360
H508        H  0.30535942  0.09762665  0.81275085     0.13930
C509        C  0.99854343  0.34031932  0.52402522    -0.15670
C510        C  0.51983916  0.35340060  0.97663018    -0.30840
H511        H  0.97121743  0.31992492  0.53217281     0.13360
H512        H  0.54787830  0.36936298  0.96762122     0.13930
C513        C  0.00085795  0.36100791  0.73074885    -0.15670
C514        C  0.47446025  0.35200502  0.74394312    -0.30840
H515        H  0.98945408  0.33238129  0.73808677     0.13360
H516        H  0.45366940  0.33462079  0.72035811     0.13930
C517        C  0.42617317  0.46312135  0.87832034    -0.15670
C518        C  0.42549053  0.48737656  0.85394293    -0.30840
H519        H  0.42151002  0.46531378  0.90975146     0.13360
H520        H  0.42629698  0.48298070  0.82188852     0.13930
C521        C  0.41922841  0.22147422  0.88633008    -0.15670
C522        C  0.44973781  0.22016664  0.88077285    -0.30840
H523        H  0.39240654  0.19651308  0.88702925     0.13360
H524        H  0.47632923  0.24569296  0.88144268     0.13930
C525        C  0.04948843  0.44035819  0.89519280    -0.15670
C526        C  0.05915152  0.47106404  0.91880990    -0.30840
H527        H  0.07065378  0.43890202  0.87896015     0.13360
H528        H  0.03956173  0.47314863  0.93727846     0.13930
C529        C  0.31566004  0.22939828  0.86396913    -0.15670
C530        C  0.29643779  0.20588518  0.89165721    -0.30840
H531        H  0.30553434  0.22227478  0.83271015     0.13360
H532        H  0.30572159  0.21373435  0.92308578     0.13930
C533        C  0.35304134  0.35624896  0.97635075    -0.15670
C534        C  0.33021259  0.33512545  0.49779065    -0.30840
H535        H  0.33772040  0.36964553  0.96815564     0.13360
H536        H  0.31850138  0.33958455  0.47079024     0.13930
C537        C  0.34937651  0.35071471  0.76127097    -0.15670
C538        C  0.36522177  0.35359376  0.72612980    -0.30840
H539        H  0.32426161  0.35183617  0.76197610     0.13360
H540        H  0.38971346  0.35143957  0.72462804     0.13930
O541        O  0.41501566  0.90768623  0.32640469    -0.79370
O542        O  0.44024057  0.83028763  0.44858137    -0.79390
O543        O  0.37832196  0.84820897  0.44159052    -0.79400
O544        O  0.50953504  0.89589199  0.36445931    -0.79340
O545        O  0.37144514  0.79266468  0.43947160    -0.79470
O546        O  0.47573603  0.92024272  0.35987441    -0.79390
O547        O  0.48923787  0.84493660  0.41831895    -0.79370
O548        O  0.39925620  0.90309534  0.38853292    -0.79410
C549        C  0.40834182  0.92104295  0.35738446     1.10320
C550        C  0.47372341  0.84174368  0.45057568     1.10200
C551        C  0.36858810  0.81816746  0.45768324     1.10340
C552        C  0.01987913  0.90716768  0.38430780     1.10220
O553        O  0.46076556  0.89259518  0.28300590    -0.79370
O554        O  0.37317168  0.77399976  0.35428530    -0.79450
O555        O  0.35647301  0.84621274  0.32583181    -0.79380
O556        O  0.44302040  0.78458964  0.35849984    -0.79360
O557        O  0.41088987  0.76136997  0.41210720    -0.79420
O558        O  0.39444181  0.83402202  0.29544613    -0.79380
O559        O  0.46410795  0.84297211  0.29879895    -0.79340
O560        O  0.33672903  0.79203755  0.37768519    -0.79410
Co561      Co  0.43651894  0.87493626  0.32943931     1.51530
Co562      Co  0.40965115  0.80380771  0.39958570     1.51690
Co563      Co  0.37159041  0.84779203  0.38335875     1.51570
Co564      Co  0.46927411  0.84254329  0.36175365     1.51470
O565        O  0.42177193  0.85012001  0.37810277    -1.41310
C566        C  0.47044434  0.86908184  0.27482053     1.10250
C567        C  0.34103302  0.76715382  0.36003171     1.10340
C568        C  0.36570469  0.83636823  0.29421198     1.10270
C569        C  0.42865216  0.75887075  0.38366444     1.10250
O570        O  0.45095755  0.64486934  0.29223019    -0.79370
O571        O  0.43512740  0.53128210  0.40087752    -0.79390
O572        O  0.98163604  0.58265596  0.35880295    -0.79400
O573        O  0.35135658  0.53652070  0.32412521    -0.79340
O574        O  0.48859523  0.59122970  0.43384374    -0.79470
O575        O  0.39613598  0.57244425  0.28807785    -0.79390
O576        O  0.39198446  0.51240686  0.35419780    -0.79370
O577        O  0.48627032  0.62315102  0.30711962    -0.79410
C578        C  0.47644491  0.63927668  0.28353847     1.10320
C579        C  0.41658174  0.50913002  0.37138900     1.10200
C580        C  0.99219715  0.57305639  0.38985465     1.10340
C581        C  0.36701623  0.54209781  0.29179109     1.10220
O582        O  0.35914357  0.59722820  0.34093106    -0.79370
O583        O  0.44623207  0.62534268  0.44969180    -0.79450
O584        O  0.48194439  0.68044867  0.35819275    -0.79380
O585        O  0.37638877  0.52924568  0.43482362    -0.79360
O586        O  0.42799003  0.55640760  0.47338019    -0.79420
O587        O  0.42301361  0.65680991  0.36426807    -0.79380
O588        O  0.36026814  0.57907866  0.40009778    -0.79340
O589        O  0.49906952  0.65397055  0.42181911    -0.79410
Co590      Co  0.41000816  0.61501646  0.32686978     1.51530
Co591      Co  0.43646394  0.57775212  0.42290509     1.51690
Co592      Co  0.48767550  0.63511170  0.36463592     1.51570
Co593      Co  0.37868547  0.54718149  0.37751039     1.51470
O594        O  0.43199006  0.59416988  0.36800930    -1.41310
C595        C  0.34714029  0.59155645  0.37513454     1.10250
C596        C  0.48008308  0.65031588  0.45149877     1.10340
C597        C  0.45471297  0.68460619  0.36497993     1.10270
C598        C  0.39408355  0.53277945  0.46836187     1.10250
O599        O  0.00841728  0.87634475  0.10260849    -0.79370
O600        O  0.13713862  0.99164357  0.06903659    -0.79390
O601        O  0.08023839  0.98152914  0.17706418    -0.79400
O602        O  0.09125778  0.91080932  0.03079028    -0.79340
O603        O  0.10309938  0.99986563  0.12132473    -0.79470
O604        O  0.04911545  0.86015123  0.05598458    -0.79390
O605        O  0.16401246  0.96284886  0.04913741    -0.79370
O606        O  0.03382803  0.93497416  0.11601762    -0.79410
C607        C  0.00576839  0.90493673  0.10347216     1.10320
C608        C  0.15643000  0.98763734  0.04470341     1.10200
C609        C  0.10244724  0.51235884  0.13819135     1.10340
C610        C  0.05936169  0.88297862  0.02880031     1.10220
O611        O  0.08766344  0.85459176  0.13122530    -0.79370
O612        O  0.14449204  0.98546518  0.18508649    -0.79450
O613        O  0.02930947  0.91233263  0.19088152    -0.79380
O614        O  0.16568541  0.91993657  0.10998144    -0.79360
O615        O  0.18494984  0.97872165  0.12644855    -0.79420
O616        O  0.04199077  0.86844262  0.17566013    -0.79380
O617        O  0.10609387  0.86046554  0.07156692    -0.79340
O618        O  0.10105834  0.93017507  0.19885642    -0.79410
Co619      Co  0.05258380  0.87132267  0.11609301     1.51530
Co620      Co  0.13944554  0.98411994  0.12515438     1.51690
Co621      Co  0.06756374  0.93038462  0.15548082     1.51570
Co622      Co  0.12783836  0.91501227  0.07101381     1.51470
O623        O  0.09949591  0.92821648  0.11404833    -1.41310
C624        C  0.10041030  0.84442574  0.10342303     1.10250
C625        C  0.12920076  0.96106972  0.21012611     1.10340
C626        C  0.02502792  0.88082255  0.19660636     1.10270
C627        C  0.19102336  0.95187951  0.12268541     1.10250
O628        O  0.18055072  0.66271419  0.34352010    -0.79370
O629        O  0.14357664  0.50712943  0.38606683    -0.79390
O630        O  0.16896451  0.55559424  0.29426186    -0.79400
O631        O  0.08962264  0.56699989  0.41842364    -0.79340
O632        O  0.19556952  0.53152049  0.32900467    -0.79470
O633        O  0.11978743  0.60922628  0.37533150    -0.79390
O634        O  0.10871039  0.52945317  0.36613965    -0.79370
O635        O  0.16016900  0.61372778  0.30330975    -0.79410
C636        C  0.16387607  0.64504056  0.31099573     1.10320
C637        C  0.11239985  0.50201906  0.37353998     1.10200
C638        C  0.18005649  0.53302448  0.29635906     1.10340
C639        C  0.08954872  0.58772863  0.39183287     1.10220
O640        O  0.17236485  0.66934781  0.42129735    -0.79370
O641        O  0.24686427  0.59074951  0.38762153    -0.79450
O642        O  0.23812467  0.66024609  0.33614237    -0.79380
O643        O  0.13945845  0.54550816  0.44641486    -0.79360
O644        O  0.19818519  0.56649069  0.44330105    -0.79420
O645        O  0.23049062  0.66149722  0.40108256    -0.79380
O646        O  0.15999104  0.61794804  0.44937445    -0.79340
O647        O  0.24562012  0.60027625  0.32383471    -0.79410
Co648      Co  0.17656729  0.63305214  0.39044762     1.51530
Co649      Co  0.19535353  0.55155861  0.38614184     1.51630
Co650      Co  0.20128279  0.60632792  0.31716798     1.51570
Co651      Co  0.13607008  0.57498216  0.40253270     1.51470
O652        O  0.18106014  0.58954336  0.37122107    -1.41310
C653        C  0.16607039  0.65159780  0.45227579     1.10250
C654        C  0.26268856  0.59981383  0.35557622     1.10340
C655        C  0.24979432  0.67568491  0.37155460     1.10270
C656        C  0.16978361  0.55136240  0.46246858     1.10250
O657        O  0.02204044  0.58600794  0.15992814    -0.79370
O658        O  0.12418460  0.67035004  0.05263157    -0.79390
O659        O  0.03522783  0.69112721  0.10019235    -0.79400
O660        O  0.13094761  0.62733577  0.13996831    -0.79340
O661        O  0.05971790  0.67104051  0.05621044    -0.79470
O662        O  0.07608818  0.60455275  0.10835870    -0.79390
O663        O  0.17089689  0.68558828  0.09594555    -0.79370
O664        O  0.01410601  0.62803072  0.13096381    -0.79410
C665        C  0.00142528  0.59431411  0.14058883     1.10320
C666        C  0.15524188  0.67395168  0.06093581     1.10200
C667        C  0.03337810  0.67516965  0.06643672     1.10340
C668        C  0.10359419  0.60155586  0.11844859     1.10220
O669        O  0.08985412  0.62073630  0.19273122    -0.79370
O670        O  0.10051733  0.74427516  0.09702334    -0.79450
O671        O  0.02417190  0.68495265  0.18187744    -0.79380
O672        O  0.17038562  0.73554894  0.15814785    -0.79360
O673        O  0.16432299  0.74337278  0.09415311    -0.79420
O674        O  0.05284493  0.65487271  0.19963216    -0.79380
O675        O  0.13325068  0.67828229  0.20508459    -0.79340
O676        O  0.09307383  0.73620901  0.16129330    -0.79410
Co677      Co  0.06393024  0.63112598  0.14932448     1.51530
Co678      Co  0.11106852  0.70499594  0.07743256     1.51690
Co679      Co  0.05838369  0.68245233  0.14846168     1.51570
Co680      Co  0.14842998  0.68199026  0.14937831     1.51470
O681        O  0.10068281  0.67824845  0.12840920    -1.41310
C682        C  0.11419885  0.64605813  0.21659899     1.10250
C683        C  0.09956013  0.75649248  0.13217013     1.10340
C684        C  0.03436830  0.67078347  0.20859214     1.10270
C685        C  0.18182593  0.75483910  0.12854688     1.10250
O686        O  0.41140740  0.92638674  0.16635822    -0.79370
O687        O  0.36581152  0.95174638  0.05335037    -0.79390
O688        O  0.34923694  0.84405741  0.07899181    -0.79400
O689        O  0.40672642  0.00250743  0.13054544    -0.79340
O690        O  0.33585929  0.87851150  0.04322511    -0.79470
O691        O  0.41077886  0.98636866  0.19066656    -0.79390
O692        O  0.35295892  0.99220259  0.07536874    -0.79370
O693        O  0.39896223  0.91640267  0.10100848    -0.79410
C694        C  0.42166520  0.92721805  0.13105614     1.10320
C695        C  0.36806871  0.98222164  0.05027199     1.10200
C696        C  0.34515346  0.85387891  0.04532699     1.10340
C697        C  0.42573164  0.00702802  0.16225588     1.10220
O698        O  0.33488890  0.94000130  0.21660241    -0.79370
O699        O  0.27220872  0.86996516  0.08320875    -0.79450
O700        O  0.36241835  0.86052000  0.15466279    -0.79380
O701        O  0.30029935  0.96311855  0.13612105    -0.79360
O702        O  0.29026979  0.93801240  0.07517005    -0.79420
O703        O  0.33753204  0.87856987  0.19744625    -0.79380
O704        O  0.35636593  0.99342258  0.19138605    -0.79340
O705        O  0.29485996  0.84525471  0.12204405    -0.79410
Co706      Co  0.37062347  0.93174318  0.18823729     1.51530
Co707      Co  0.31950603  0.91178651  0.07161952     1.51690
Co708      Co  0.34708751  0.88222591  0.11080664     1.51570
Co709      Co  0.35318154  0.98150460  0.13290681     1.51470
O710        O  0.34325675  0.92624039  0.13242570    -1.41310
C711        C  0.34179839  0.97289195  0.21959746     1.10250
C712        C  0.26738506  0.84459664  0.10482110     1.10340
C713        C  0.35112476  0.85872825  0.18905687     1.10270
C714        C  0.27903362  0.94784408  0.10539136     1.10250
C715        C  0.47595039  0.54968243  0.13377725    -0.15670
C716        C  0.44306192  0.54137207  0.11718357    -0.30840
H717        H  0.47823644  0.52967031  0.15134760     0.13360
H718        H  0.43977699  0.56269140  0.10365819     0.13930
C719        C  0.21836950  0.78876755  0.13343363    -0.15670
C720        C  0.22941532  0.81377770  0.10618660    -0.30840
H721        H  0.23705919  0.79221509  0.15853782     0.13360
H722        H  0.20980544  0.81094594  0.08241115     0.13930
C723        C  0.12207180  0.63611212  0.25529568    -0.15670
C724        C  0.14956356  0.66007554  0.28146642    -0.30840
H725        H  0.10744561  0.60662927  0.26011702     0.13360
H726        H  0.16382094  0.68980867  0.27840641     0.13930
C727        C  0.17354188  0.66485768  0.02920654    -0.15670
C728        C  0.16308087  0.66915843  0.49002876    -0.30840
H729        H  0.18995085  0.65265867  0.03754399     0.13360
H730        H  0.15177120  0.68716797  0.48633578     0.13930
C731        C  0.16778805  0.01059248  0.01074247    -0.15670
C732        C  0.17199863  0.53714042  0.50132700    -0.30840
H733        H  0.18690561  0.00922623  0.99081740     0.13360
H734        H  0.19724873  0.53787321  0.51066451     0.13930
C735        C  0.18052660  0.51444499  0.25795487    -0.15670
C736        C  0.15291227  0.48062039  0.24452816    -0.30840
H737        H  0.19823812  0.53279533  0.23631114     0.13360
H738        H  0.12190553  0.95482904  0.27533514     0.13930
C739        C  0.09805478  0.54503545  0.14198151    -0.15670
C740        C  0.10191783  0.56596945  0.11107059    -0.30840
H741        H  0.09302782  0.55308509  0.17131210     0.13360
H742        H  0.10551018  0.55784656  0.08110814     0.13930
C743        C  0.10657821  0.81292462  0.10540385    -0.15670
C744        C  0.10098945  0.79256145  0.13720704    -0.30840
H745        H  0.11408475  0.80476598  0.07767091     0.13360
H746        H  0.09397109  0.80049172  0.16537998     0.13930
C747        C  0.22905612  0.95871942  0.12883012    -0.15670
C748        C  0.24122295  0.94192703  0.10328911    -0.30840
H749        H  0.24786222  0.97961675  0.15171896     0.13360
H750        H  0.22265886  0.92335597  0.07865510     0.13930
C751        C  0.46000355  0.93804153  0.12704469    -0.15670
C752        C  0.46905071  0.91402596  0.11102518    -0.30840
H753        H  0.48011716  0.96183633  0.14638186     0.13360
H754        H  0.44864981  0.88916490  0.09325646     0.13930
C755        C  0.02056537  0.66442572  0.48432370    -0.15670
C756        C  0.00010747  0.65937047  0.03933536    -0.30840
H757        H  0.04915889  0.67340521  0.47980297     0.13360
H758        H  0.97808327  0.63145581  0.04399706     0.13930
C759        C  0.49426630  0.65190867  0.24611888    -0.15670
C760        C  0.02546141  0.67097282  0.25052720    -0.30840
H761        H  0.47710955  0.65073980  0.22055646     0.13360
H762        H  0.03856416  0.66141061  0.27142128     0.13930
C763        C  0.38609811  0.00404525  0.01661266    -0.15670
C764        C  0.37362561  0.51068759  0.50136291    -0.30840
H765        H  0.40414254  0.99728770  0.00058250     0.13360
H766        H  0.35284545  0.51598750  0.51278538     0.13930
C767        C  0.33937315  0.98988367  0.25801446    -0.15670
C768        C  0.35236865  0.51247129  0.25978007    -0.30840
H769        H  0.33557277  0.97505208  0.28485071     0.13360
H770        H  0.32538989  0.50286432  0.24524112     0.13930
C771        C  0.05572711  0.58835958  0.37894722    -0.15670
C772        C  0.02191057  0.56399642  0.38996385    -0.30840
H773        H  0.05939719  0.61161531  0.36244043     0.13360
H774        H  0.01868841  0.54185788  0.40816971     0.13930
C775        C  0.29993002  0.60576877  0.35390371    -0.15670
C776        C  0.31524438  0.59556442  0.38302621    -0.30840
H777        H  0.31300554  0.61435196  0.32587219     0.13360
H778        H  0.30201336  0.58630587  0.41084362     0.13930
C779        C  0.03428496  0.87707906  0.99439054    -0.15670
C780        C  0.49357886  0.85081143  0.49062940    -0.30840
H781        H  0.02948828  0.89952866  0.98792790     0.13360
H782        H  0.47967384  0.85297023  0.51643013     0.13930
C783        C  0.00418958  0.86063523  0.23000852    -0.15670
C784        C  0.48882114  0.87341526  0.23719413    -0.30840
H785        H  0.00849616  0.83930431  0.24182288     0.13360
H786        H  0.49760315  0.89978273  0.22421738     0.13930
C787        C  0.40984210  0.95669674  0.35619824    -0.15670
C788        C  0.42326577  0.98165250  0.38773321    -0.30840
H789        H  0.39955091  0.96241032  0.32892395     0.13360
H790        H  0.43559193  0.97673065  0.41396726     0.13930
C791        C  0.42840062  0.72396622  0.37738262    -0.15670
C792        C  0.45842724  0.72165794  0.37020370    -0.30840
H793        H  0.40252358  0.69904541  0.38222459     0.13360
H794        H  0.48493584  0.74655188  0.36764782     0.13930
C795        C  0.05715315  0.94068874  0.39048106    -0.15670
C796        C  0.06754574  0.96994035  0.36784883    -0.30840
H797        H  0.07696504  0.94019337  0.41152641     0.13360
H798        H  0.04723148  0.96982052  0.34699107     0.13930
C799        C  0.30890594  0.72915236  0.35087201    -0.15670
C800        C  0.28391836  0.71264699  0.37839087    -0.30840
H801        H  0.30672853  0.71410265  0.32270612     0.13360
H802        H  0.28831558  0.72740900  0.40744773     0.13930
C803        C  0.35504766  0.81406770  0.49788795    -0.15670
C804        C  0.35295079  0.84026516  0.00773301    -0.30840
H805        H  0.36922512  0.80826527  0.52151849     0.13360
H806        H  0.34590507  0.84928019  0.98065997     0.13930
C807        C  0.34605239  0.83548786  0.25625974    -0.15670
C808        C  0.36080081  0.84063346  0.22056401    -0.30840
H809        H  0.32242369  0.83897442  0.25932856     0.13360
H810        H  0.38443389  0.83735566  0.21660654     0.13930
O811        O  0.43098292  0.92237703  0.82751267    -0.79370
O812        O  0.45642660  0.85682385  0.93964076    -0.79390
O813        O  0.38782192  0.84058940  0.93878806    -0.79400
O814        O  0.51427877  0.89799216  0.85462363    -0.79340
O815        O  0.39455612  0.79440498  0.95826856    -0.79470
O816        O  0.47760356  0.91487964  0.87928443    -0.79390
O817        O  0.49858167  0.84920822  0.91154577    -0.79370
O818        O  0.40823517  0.89735366  0.88443740    -0.79410
C819        C  0.41543510  0.92247575  0.85958927     1.10320
C820        C  0.48767585  0.85989900  0.94131334     1.10200
C821        C  0.38440307  0.81776937  0.96530311     1.10340
C822        C  0.01414166  0.91379574  0.87536942     1.10220
O823        O  0.47499386  0.89269957  0.79469890    -0.79370
O824        O  0.38034535  0.76468785  0.87982421    -0.79450
O825        O  0.35948342  0.83962482  0.82389425    -0.79380
O826        O  0.46016518  0.78846257  0.85188050    -0.79360
O827        O  0.44407242  0.78520979  0.91397883    -0.79420
O828        O  0.40583241  0.85220618  0.78998222    -0.79380
O829        O  0.47471376  0.83978627  0.79351050    -0.79340
O830        O  0.34429041  0.78636635  0.87215320    -0.79410
Co831      Co  0.43858160  0.88159959  0.83702739     1.51530
Co832      Co  0.41683409  0.81216264  0.90885014     1.51690
Co833      Co  0.38189772  0.84054212  0.87752662     1.51570
Co834      Co  0.48253003  0.84279092  0.85304382     1.51470
O835        O  0.43033142  0.83618389  0.85885591    -1.41310
C836        C  0.48155306  0.86920620  0.77700827     1.10250
C837        C  0.34905056  0.75912277  0.87060037     1.10340
C838        C  0.37254357  0.84153024  0.79062233     1.10270
C839        C  0.45375740  0.77294253  0.88456657     1.10250
O840        O  0.45294640  0.64170854  0.79238769    -0.79370
O841        O  0.42776288  0.53287718  0.90287271    -0.79390
O842        O  0.00591986  0.60250100  0.89194185    -0.79400
O843        O  0.34780086  0.53847339  0.83227106    -0.79340
O844        O  0.47829476  0.58996858  0.94358132    -0.79470
O845        O  0.38522877  0.57887329  0.79125624    -0.79390
O846        O  0.40056466  0.52635450  0.84690841    -0.79370
O847        O  0.48364939  0.61601089  0.81481964    -0.79410
C848        C  0.47461547  0.62935848  0.78728279     1.10320
C849        C  0.41806445  0.51681450  0.86839439     1.10200
C850        C  0.01014965  0.58643828  0.92216221     1.10340
C851        C  0.35675248  0.54824917  0.79691221     1.10220
O852        O  0.36313802  0.61074993  0.85321796    -0.79370
O853        O  0.44017190  0.62893225  0.94957350    -0.79450
O854        O  0.49003905  0.68239673  0.85486762    -0.79380
O855        O  0.35649274  0.51663395  0.91648613    -0.79360
O856        O  0.40051636  0.55182645  0.96526640    -0.79420
O857        O  0.43332082  0.66822584  0.86397515    -0.79380
O858        O  0.36348564  0.58323238  0.90695386    -0.79340
O859        O  0.49576623  0.65610437  0.92627478    -0.79410
Co860      Co  0.41029888  0.62365438  0.82838535     1.51530
Co861      Co  0.42849047  0.58069916  0.92197942     1.51690
Co862      Co  0.48748618  0.63473006  0.86921272     1.51570
Co863      Co  0.38543278  0.55610846  0.87925667     1.51470
O864        O  0.43181283  0.60190148  0.86686243    -1.41310
C865        C  0.34965977  0.59811071  0.88588580     1.10250
C866        C  0.47456712  0.65326763  0.95377061     1.10340
C867        C  0.46679809  0.69201805  0.86292387     1.10270
C868        C  0.36857468  0.52377380  0.95393698     1.10250
O869        O  0.01734796  0.89551028  0.61642390    -0.79370
O870        O  0.17267693  0.99124420  0.58640633    -0.79390
O871        O  0.08273710  0.97865524  0.60701448    -0.79400
O872        O  0.05859613  0.89623908  0.54475023    -0.79340
O873        O  0.13716100  0.01012878  0.63989001    -0.79470
O874        O  0.03473184  0.84823970  0.58039000    -0.79390
O875        O  0.12207246  0.96254375  0.54682269    -0.79370
O876        O  0.02855707  0.94392276  0.65705444    -0.79410
C877        C  0.00717739  0.91760550  0.63199610     1.10320
C878        C  0.15413533  0.98987555  0.55510579     1.10200
C879        C  0.09993378  0.51271823  0.61347272     1.10340
C880        C  0.03530941  0.86265468  0.54806490     1.10220
O881        O  0.08832528  0.85711293  0.63830244    -0.79370
O882        O  0.13909859  0.95914932  0.69549637    -0.79450
O883        O  0.04946526  0.89943614  0.68733171    -0.79380
O884        O  0.16198596  0.92706993  0.57126003    -0.79360
O885        O  0.17272861  0.93784369  0.63706582    -0.79420
O886        O  0.01849788  0.84212571  0.65882494    -0.79380
O887        O  0.09973486  0.86211669  0.57374452    -0.79340
O888        O  0.09538823  0.97233448  0.68969630    -0.79410
Co889      Co  0.05711895  0.87983297  0.63124222     1.51530
Co890      Co  0.15235955  0.97112204  0.63939084     1.51690
Co891      Co  0.06738897  0.93789217  0.64273726     1.51570
Co892      Co  0.10956716  0.91302509  0.56178066     1.51470
O893        O  0.10254456  0.92659829  0.61755785    -1.41310
C894        C  0.09767755  0.84684957  0.60647498     1.10250
C895        C  0.12046159  0.97202423  0.71070736     1.10340
C896        C  0.02411915  0.86480273  0.68835583     1.10270
C897        C  0.17999578  0.92906641  0.60322202     1.10250
O898        O  0.16239861  0.65478932  0.84139272    -0.79370
O899        O  0.11057619  0.50931279  0.88346035    -0.79390
O900        O  0.20943838  0.57420072  0.81262331    -0.79400
O901        O  0.11170915  0.58479523  0.93453544    -0.79340
O902        O  0.15279446  0.53577257  0.82359517    -0.79470
O903        O  0.11501855  0.58718990  0.86886748    -0.79390
O904        O  0.11505045  0.52336999  0.94800099    -0.79370
O905        O  0.17745104  0.61554110  0.81438018    -0.79410
C906        C  0.16392542  0.63700375  0.81067685     1.10320
C907        C  0.09663497  0.50320992  0.91686323     1.10200
C908        C  0.17791542  0.54763404  0.79997008     1.10340
C909        C  0.09723320  0.58318899  0.89973816     1.10220
O910        O  0.16291029  0.64908070  0.92205564    -0.79370
O911        O  0.21705592  0.54380992  0.87329452    -0.79450
O912        O  0.25205888  0.65044102  0.83379070    -0.79380
O913        O  0.19310339  0.56784943  0.97033976    -0.79360
O914        O  0.17077156  0.51526354  0.93290103    -0.79420
O915        O  0.22409816  0.66358096  0.88132170    -0.79380
O916        O  0.18988206  0.63092329  0.96338128    -0.79340
O917        O  0.24843466  0.60397202  0.89062299    -0.79410
Co918      Co  0.16859639  0.62203843  0.87418911     1.51530
Co919      Co  0.16312435  0.52897569  0.87850260     1.51630
Co920      Co  0.21224185  0.61032742  0.85722324     1.51570
Co921      Co  0.15457677  0.57764795  0.95116136     1.51470
O922        O  0.17327841  0.58031258  0.89516071    -1.41310
C923        C  0.17636733  0.65101017  0.95693361     1.10250
C924        C  0.24741282  0.57319607  0.88555167     1.10340
C925        C  0.25185321  0.67365246  0.85939845     1.10270
C926        C  0.18808728  0.53555295  0.96449001     1.10250
O927        O  0.03183339  0.59219470  0.67055687    -0.79370
O928        O  0.12329209  0.66885493  0.55384556    -0.79390
O929        O  0.03328042  0.68658406  0.58991873    -0.79400
O930        O  0.14286383  0.64068875  0.64810167    -0.79340
O931        O  0.05988410  0.66501332  0.55354045    -0.79470
O932        O  0.08644544  0.60907220  0.62001611    -0.79390
O933        O  0.17355571  0.69168501  0.59373282    -0.79370
O934        O  0.02129634  0.62284531  0.62394412    -0.79410
C935        C  0.01081630  0.59359144  0.64371724     1.10320
C936        C  0.15527000  0.67479378  0.56071980     1.10200
C937        C  0.03516550  0.67265743  0.55664211     1.10340
C938        C  0.11701902  0.61155615  0.62916819     1.10220
O939        O  0.10097109  0.63624724  0.70242270    -0.79370
O940        O  0.09637089  0.74314645  0.59075819    -0.79450
O941        O  0.01554344  0.67688071  0.66407126    -0.79380
O942        O  0.16905190  0.74543547  0.65006708    -0.79360
O943        O  0.16028795  0.74488257  0.58490128    -0.79420
O944        O  0.05009064  0.66012591  0.69805374    -0.79380
O945        O  0.14112475  0.69529759  0.70475694    -0.79340
O946        O  0.08476154  0.73338307  0.65424457    -0.79410
Co947      Co  0.07030154  0.63682748  0.65536470     1.51530
Co948      Co  0.10906605  0.70357529  0.57348625     1.51690
Co949      Co  0.05622067  0.67961907  0.64027442     1.51570
Co950      Co  0.15373552  0.69328569  0.64857346     1.51470
O951        O  0.10311711  0.68210642  0.62734409    -1.41310
C952        C  0.12601764  0.66536976  0.72174431     1.10250
C953        C  0.09315535  0.75448208  0.62579815     1.10340
C954        C  0.02308119  0.66676404  0.69596709     1.10270
C955        C  0.17585003  0.76172382  0.61832143     1.10250
O956        O  0.41252292  0.92223327  0.66226003    -0.79370
O957        O  0.34329313  0.93439908  0.54443472    -0.79390
O958        O  0.35296670  0.84392043  0.57458565    -0.79400
O959        O  0.40368796  0.99416833  0.62474039    -0.79340
O960        O  0.31673998  0.86227174  0.54865914    -0.79470
O961        O  0.41107215  0.97985021  0.68522790    -0.79390
O962        O  0.34510935  0.98166863  0.57574542    -0.79370
O963        O  0.40085086  0.91636744  0.59689903    -0.79410
C964        C  0.42340527  0.92597798  0.62692563     1.10320
C965        C  0.35088259  0.96729385  0.54532639     1.10200
C966        C  0.33298107  0.84339763  0.54564108     1.10340
C967        C  0.42418863  0.99872612  0.65516407     1.10220
O968        O  0.33562165  0.93404060  0.71454935    -0.79370
O969        O  0.26781299  0.86454559  0.60835920    -0.79450
O970        O  0.36639270  0.85828932  0.65141067    -0.79380
O971        O  0.30118858  0.95800906  0.64416502    -0.79360
O972        O  0.27998963  0.92840950  0.58574450    -0.79420
O973        O  0.33801375  0.87315766  0.69309610    -0.79380
O974        O  0.35992517  0.98824143  0.69095965    -0.79340
O975        O  0.30070927  0.83972539  0.62262568    -0.79410
Co976      Co  0.37097275  0.92599335  0.68534383     1.51530
Co977      Co  0.30616784  0.89989785  0.57848107     1.51690
Co978      Co  0.35023412  0.87995482  0.60792691     1.51570
Co979      Co  0.35197023  0.97506921  0.63286741     1.51470
O980        O  0.34297739  0.92095456  0.63121741    -1.41310
C981        C  0.34607871  0.96780304  0.71932317     1.10250
C982        C  0.27074562  0.83927313  0.62277964     1.10340
C983        C  0.35337431  0.85496738  0.68522456     1.10270
C984        C  0.27537191  0.94178399  0.61808566     1.10250
C985        C  0.46542466  0.55667909  0.63435296    -0.15670
C986        C  0.44817139  0.53896965  0.66649114    -0.30840
H987        H  0.45014576  0.55074645  0.60559450     0.13360
H988        H  0.46339176  0.54573820  0.69541170     0.13930
C989        C  0.20565979  0.79932066  0.61906422    -0.15670
C990        C  0.23827987  0.80763512  0.63590054    -0.30840
H991        H  0.20309030  0.81732530  0.59846706     0.13360
H992        H  0.24132227  0.78771922  0.65287030     0.13930
C993        C  0.13972492  0.66424682  0.76252120    -0.15670
C994        C  0.14786244  0.63804481  0.77111595    -0.30840
H995        H  0.14673494  0.68715269  0.78440490     0.13360
H996        H  0.14355544  0.61705484  0.74781726     0.13930
C997        C  0.17060212  0.66333280  0.52756973    -0.15670
C998        C  0.16814805  0.66932303  0.99043934    -0.30840
H999        H  0.18427418  0.64780329  0.53314628     0.13360
H1000       H  0.15253056  0.68258667  0.98290064     0.13930
C1001       C  0.17029988  0.01872514  0.52632696    -0.15670
C1002       C  0.19667086  0.51953224  0.99815149    -0.30840
H1003       H  0.19935995  0.03172594  0.52118544     0.13360
H1004       H  0.20725439  0.53722907  0.02584132     0.13930
C1005       C  0.16911560  0.52964471  0.75892471    -0.15670
C1006       C  0.13345398  0.50668508  0.74594011    -0.30840
H1007       H  0.19117160  0.53470910  0.73974674     0.13360
H1008       H  0.11438841  0.00519185  0.75826390     0.13930
C1009       C  0.09584756  0.54546479  0.60842023    -0.15670
C1010       C  0.12266692  0.57975106  0.62205410    -0.30840
H1011       H  0.06910648  0.54077638  0.59795223     0.13360
H1012       H  0.14918054  0.58398149  0.63278168     0.13930
C1013       C  0.10313629  0.81450096  0.60422881    -0.15670
C1014       C  0.09524886  0.79084145  0.63306614    -0.30840
H1015       H  0.11079755  0.80799985  0.57567115     0.13360
H1016       H  0.08734250  0.79684764  0.66169546     0.13930
C1017       C  0.21177995  0.92429529  0.59899809    -0.15670
C1018       C  0.24093283  0.94100320  0.62524637    -0.30840
H1019       H  0.21299984  0.91042208  0.57136663     0.13360
H1020       H  0.24012571  0.95593897  0.65223984     0.13930
C1021       C  0.46229552  0.93930915  0.62283297    -0.15670
C1022       C  0.47351011  0.91786175  0.60472450    -0.30840
H1023       H  0.48119338  0.96229475  0.64384542     0.13360
H1024       H  0.45455244  0.89384348  0.58492672     0.13930
C1025       C  0.00246191  0.67326988  0.00367433    -0.15670
C1026       C  0.00984673  0.66539207  0.52170414    -0.30840
H1027       H  0.02582466  0.70060527  0.99940033     0.13360
H1028       H  0.98172785  0.65794609  0.52666944     0.13930
C1029       C  0.49288021  0.63280955  0.75071532    -0.15670
C1030       C  0.00010090  0.66215568  0.72961685    -0.30840
H1031       H  0.49767236  0.61038749  0.74165699     0.13360
H1032       H  0.98481538  0.67661348  0.73049278     0.13930
C1033       C  0.36475675  0.98862077  0.51035796    -0.15670
C1034       C  0.34683405  0.49890856  0.98412863    -0.30840
H1035       H  0.36143476  0.97403701  0.48144192     0.13360
H1036       H  0.33087436  0.46936240  0.97525146     0.13930
C1037       C  0.35003186  0.98577021  0.75887088    -0.15670
C1038       C  0.33610964  0.52436879  0.76040045    -0.30840
H1039       H  0.32974177  0.97233780  0.78073671     0.13360
H1040       H  0.34043081  0.53882112  0.73319236     0.13930
C1041       C  0.06157408  0.58184174  0.89496076    -0.15670
C1042       C  0.04149369  0.58002925  0.92596544    -0.30840
H1043       H  0.05317269  0.58560413  0.86537394     0.13360
H1044       H  0.04905404  0.57516684  0.95541035     0.13930
C1045       C  0.28185089  0.57083157  0.88973563    -0.15670
C1046       C  0.31657867  0.60030465  0.89686078    -0.30840
H1047       H  0.27870143  0.54381254  0.88224264     0.13360
H1048       H  0.32023095  0.62783016  0.90148722     0.13930
C1049       C  0.00925098  0.84105371  0.51464461    -0.15670
C1050       C  0.51102473  0.87373718  0.97845443    -0.30840
H1051       H  0.98042109  0.82392630  0.52065003     0.13360
H1052       H  0.53443979  0.90184877  0.97934869     0.13930
C1053       C  0.00156945  0.85222237  0.72364167    -0.15670
C1054       C  0.50025560  0.87889456  0.73896226    -0.30840
H1055       H  0.98954927  0.82352738  0.73095209     0.13360
H1056       H  0.51136636  0.90746768  0.73142021     0.13930
C1057       C  0.40753968  0.95207447  0.87173334    -0.15670
C1058       C  0.41899431  0.98313181  0.85281595    -0.30840
H1059       H  0.39309773  0.94884728  0.89885914     0.13360
H1060       H  0.43569705  0.98790403  0.82734083     0.13930
C1061       C  0.45509616  0.73923176  0.88853292    -0.15670
C1062       C  0.47680712  0.73096040  0.86760517    -0.30840
H1063       H  0.43547213  0.71917893  0.90769423     0.13360
H1064       H  0.49833767  0.75136909  0.85045646     0.13930
C1065       C  0.05206763  0.94664067  0.88465270    -0.15670
C1066       C  0.06465788  0.97883342  0.86656694    -0.30840
H1067       H  0.07126109  0.94272230  0.90311642     0.13360
H1068       H  0.04534368  0.98200661  0.84737797     0.13930
C1069       C  0.31808515  0.72111603  0.85966482    -0.15670
C1070       C  0.28332200  0.71192168  0.86593319    -0.30840
H1071       H  0.32406484  0.69984596  0.84946555     0.13360
H1072       H  0.27800209  0.73271060  0.87938284     0.13930
C1073       C  0.37152408  0.82200634  0.00478663    -0.15670
C1074       C  0.33184747  0.82603843  0.50625350    -0.30840
H1075       H  0.37855614  0.81205887  0.03105364     0.13360
H1076       H  0.31782764  0.83104796  0.48167140     0.13930
C1077       C  0.35026971  0.83642322  0.75362667    -0.15670
C1078       C  0.36361324  0.83852896  0.71741914    -0.30840
H1079       H  0.32569387  0.83822882  0.75677442     0.13360
H1080       H  0.38756297  0.83570427  0.71384794     0.13930
O1081       O  0.92351118  0.40542629  0.32936146    -0.79370
O1082       O  0.94524070  0.32665744  0.46021966    -0.79390
O1083       O  0.89139865  0.35985156  0.44300244    -0.79400
O1084       O  0.01482054  0.38959562  0.37298390    -0.79340
O1085       O  0.87066942  0.30336814  0.45578229    -0.79470
O1086       O  0.98185874  0.41494371  0.37257567    -0.79390
O1087       O  0.98664275  0.33083818  0.41831474    -0.79370
O1088       O  0.91574499  0.40345886  0.39131091    -0.79410
C1089       C  0.91960553  0.42018521  0.36074952     1.10320
C1090       C  0.97747128  0.33447359  0.45326781     1.10200
C1091       C  0.87360546  0.33429924  0.46459092     1.10340
C1092       C  0.51558166  0.41766412  0.37427168     1.10220
O1093       O  0.96997930  0.39466498  0.29357532    -0.79370
O1094       O  0.86423442  0.26148182  0.38309834    -0.79450
O1095       O  0.86678562  0.34423094  0.32598732    -0.79380
O1096       O  0.94028276  0.28313023  0.34612313    -0.79360
O1097       O  0.92966222  0.26692212  0.40641244    -0.79420
O1098       O  0.90588384  0.33067332  0.30171786    -0.79380
O1099       O  0.97258811  0.34407779  0.30184595    -0.79340
O1100       O  0.83967740  0.29692849  0.38399683    -0.79410
Co1101     Co  0.94431004  0.37167558  0.33799041     1.51530
Co1102     Co  0.90483119  0.29501830  0.42139797     1.51690
Co1103     Co  0.88175126  0.35004746  0.38556900     1.51570
Co1104     Co  0.97253643  0.33680922  0.36236259     1.51470
O1105       O  0.92501962  0.33964146  0.38291297    -1.41310
C1106       C  0.97810864  0.37127458  0.28098190     1.10250
C1107       C  0.83691776  0.26547840  0.37749815     1.10340
C1108       C  0.87728084  0.33234318  0.29671982     1.10270
C1109       C  0.93562655  0.26034289  0.37151043     1.10250
O1110       O  0.92321359  0.12690021  0.30069381    -0.79370
O1111       O  0.93037755  0.02670213  0.42010110    -0.79390
O1112       O  0.49737918  0.09455885  0.37982109    -0.79400
O1113       O  0.84815578  0.99749543  0.32960031    -0.79340
O1114       O  0.99045891  0.09244001  0.43422097    -0.79470
O1115       O  0.88349989  0.04960231  0.30101387    -0.79390
O1116       O  0.92001658  0.02335178  0.35438511    -0.79370
O1117       O  0.96713653  0.11539787  0.30965274    -0.79410
C1118       C  0.95199067  0.12836932  0.28842715     1.10320
C1119       C  0.93161677  0.01469204  0.38472011     1.10200
C1120       C  0.50600509  0.09339682  0.41572111     1.10340
C1121       C  0.86052688  0.01396888  0.29809246     1.10220
O1122       O  0.85095131  0.08961824  0.32206752    -0.79370
O1123       O  0.95147980  0.12795524  0.45848010    -0.79450
O1124       O  0.96054117  0.16937376  0.36325626    -0.79380
O1125       O  0.86559976  0.00976919  0.41117555    -0.79360
O1126       O  0.88682828  0.06068455  0.44786363    -0.79420
O1127       O  0.90307448  0.13541649  0.38005031    -0.79380
O1128       O  0.84598634  0.05491649  0.37231773    -0.79340
O1129       O  0.99923980  0.15634127  0.42209123    -0.79410
Co1130     Co  0.89421573  0.09272421  0.34406724     1.51530
Co1131     Co  0.93825095  0.07769718  0.43762809     1.51690
Co1132     Co  0.97872843  0.13279677  0.36638390     1.51570
Co1133     Co  0.88523391  0.04008497  0.36227079     1.51470
O1134       O  0.93012325  0.08921823  0.38144298    -1.41310
C1135       C  0.83338655  0.07142427  0.35100926     1.10250
C1136       C  0.98469177  0.15292269  0.45535672     1.10340
C1137       C  0.93134911  0.16676782  0.37646050     1.10270
C1138       C  0.86728764  0.02596866  0.44474566     1.10250
O1139       O  0.51975554  0.39270495  0.11572407    -0.79370
O1140       O  0.67626009  0.49771984  0.09108829    -0.79390
O1141       O  0.57859725  0.47623643  0.10881306    -0.79400
O1142       O  0.56740893  0.39898018  0.04282930    -0.79340
O1143       O  0.63362296  0.51272473  0.13919877    -0.79470
O1144       O  0.54226361  0.35102977  0.07882163    -0.79390
O1145       O  0.62836911  0.46597352  0.04854294    -0.79370
O1146       O  0.52641761  0.43693142  0.15965910    -0.79410
C1147       C  0.50659093  0.41108343  0.13341403     1.10320
C1148       C  0.65865177  0.49497076  0.05855519     1.10200
C1149       C  0.60830624  0.00651471  0.12007544     1.10340
C1150       C  0.54250739  0.36608020  0.04686655     1.10220
O1151       O  0.59565153  0.36266453  0.14088774    -0.79370
O1152       O  0.63895534  0.46298671  0.19775551    -0.79450
O1153       O  0.55507079  0.39838061  0.18860001    -0.79380
O1154       O  0.67083322  0.43407273  0.07950116    -0.79360
O1155       O  0.67628268  0.44620346  0.14504612    -0.79420
O1156       O  0.52468007  0.34182528  0.15786505    -0.79380
O1157       O  0.60895503  0.36737072  0.07712950    -0.79340
O1158       O  0.59404122  0.47355424  0.19176959    -0.79410
Co1159     Co  0.56204120  0.38153682  0.13115352     1.51530
Co1160     Co  0.65336062  0.47670347  0.14267771     1.51690
Co1161     Co  0.56831660  0.43680925  0.14487941     1.51570
Co1162     Co  0.61778022  0.41757377  0.06459241     1.51470
O1163       O  0.60626670  0.43031380  0.11881000    -1.41310
C1164       C  0.60610317  0.35255049  0.11021792     1.10250
C1165       C  0.61941511  0.47419815  0.21326063     1.10340
C1166       C  0.53087967  0.36329488  0.18879807     1.10270
C1167       C  0.68582478  0.43611871  0.11387492     1.10250
O1168       O  0.68706468  0.16640171  0.35341959    -0.79370
O1169       O  0.63674935  0.00798992  0.39716851    -0.79390
O1170       O  0.65716165  0.05078276  0.30436326    -0.79400
O1171       O  0.59524064  0.07515414  0.43331263    -0.79340
O1172       O  0.68328074  0.02515612  0.33806830    -0.79470
O1173       O  0.62644326  0.11871725  0.39111710    -0.79390
O1174       O  0.60626140  0.03459096  0.37564165    -0.79370
O1175       O  0.65891164  0.11679164  0.31315125    -0.79410
C1176       C  0.67073040  0.15085452  0.31977382     1.10320
C1177       C  0.60737021  0.00553428  0.38218831     1.10200
C1178       C  0.66337887  0.02448355  0.30833363     1.10340
C1179       C  0.59696938  0.09857423  0.40956059     1.10220
O1180       O  0.68604108  0.17611750  0.43403724    -0.79370
O1181       O  0.74264352  0.08316946  0.38907046    -0.79450
O1182       O  0.73763514  0.15399547  0.33976386    -0.79380
O1183       O  0.63859388  0.04895325  0.45450578    -0.79360
O1184       O  0.69637301  0.06477651  0.45231638    -0.79420
O1185       O  0.73607894  0.15779795  0.40603167    -0.79380
O1186       O  0.66470729  0.12151837  0.45897579    -0.79340
O1187       O  0.73463407  0.08919282  0.32491022    -0.79410
Co1188     Co  0.68261398  0.13633320  0.40062630     1.51530
Co1189     Co  0.68988904  0.04853395  0.39426375     1.51630
Co1190     Co  0.69516367  0.10173678  0.32330312     1.51570
Co1191     Co  0.63738331  0.07935256  0.41205852     1.51470
O1192       O  0.67962515  0.08939165  0.37949692    -1.41310
C1193       C  0.67524078  0.15645692  0.46370155     1.10250
C1194       C  0.75423896  0.08914859  0.35424508     1.10340
C1195       C  0.75341517  0.16821048  0.37455317     1.10270
C1196       C  0.66782633  0.05380948  0.47163610     1.10250
O1197       O  0.53420156  0.10698627  0.18000814    -0.79370
O1198       O  0.63888255  0.21436650  0.06471166    -0.79390
O1199       O  0.51476120  0.17127856  0.10270130    -0.79400
O1200       O  0.60588527  0.10725437  0.12207747    -0.79340
O1201       O  0.56216015  0.18067254  0.06816463    -0.79470
O1202       O  0.59786425  0.10561443  0.18652540    -0.79390
O1203       O  0.62451023  0.15726319  0.06826428    -0.79370
O1204       O  0.53017320  0.11663156  0.11626060    -0.79410
C1205       C  0.51802015  0.09576614  0.14500119     1.10320
C1206       C  0.63820162  0.18597414  0.04934615     1.10200
C1207       C  0.52779447  0.17133782  0.06953690     1.10340
C1208       C  0.60018816  0.09060216  0.15362383     1.10220
O1209       O  0.63687816  0.18335745  0.21830254    -0.79370
O1210       O  0.60835117  0.25379366  0.09140974    -0.79450
O1211       O  0.52602670  0.16234062  0.17672753    -0.79380
O1212       O  0.68091596  0.21473970  0.12578976    -0.79360
O1213       O  0.65321287  0.24543754  0.14413480    -0.79420
O1214       O  0.57458389  0.18488647  0.21647832    -0.79380
O1215       O  0.66265082  0.16078546  0.17976635    -0.79340
O1216       O  0.57566398  0.22815214  0.14317169    -0.79410
Co1217     Co  0.58686522  0.14729184  0.19754075     1.51530
Co1218     Co  0.60761972  0.21176454  0.11012788     1.51690
Co1219     Co  0.55491618  0.17115689  0.12853521     1.51570
Co1220     Co  0.64085056  0.16058149  0.12454845     1.51470
O1221       O  0.60063350  0.16980525  0.14356929    -1.41310
C1222       C  0.65981171  0.17312211  0.21408845     1.10250
C1223       C  0.59192221  0.25621401  0.12128965     1.10340
C1224       C  0.54139752  0.17519455  0.21100738     1.10270
C1225       C  0.68237353  0.24463328  0.13856825     1.10250
O1226       O  0.92794056  0.43524740  0.17723914    -0.79370
O1227       O  0.85497202  0.44474228  0.04197090    -0.79390
O1228       O  0.83472174  0.33797750  0.08890138    -0.79400
O1229       O  0.89100179  0.50143780  0.13296312    -0.79340
O1230       O  0.85420973  0.38399840  0.05160421    -0.79470
O1231       O  0.91357465  0.46623044  0.11450018    -0.79390
O1232       O  0.83724205  0.47904942  0.07412089    -0.79370
O1233       O  0.89991459  0.39362342  0.12648552    -0.79410
C1234       C  0.92943396  0.41523928  0.14910559     1.10320
C1235       C  0.85537512  0.47470726  0.04717341     1.10200
C1236       C  0.84727473  0.35181095  0.05630855     1.10340
C1237       C  0.91742300  0.49799683  0.12046043     1.10220
O1238       O  0.89214262  0.46974850  0.19309981    -0.79370
O1239       O  0.77773590  0.34832032  0.07829869    -0.79450
O1240       O  0.84767630  0.34063793  0.17215656    -0.79380
O1241       O  0.78271664  0.43066968  0.12688721    -0.79360
O1242       O  0.77892699  0.41259510  0.06328401    -0.79420
O1243       O  0.85684633  0.39458131  0.19722179    -0.79380
O1244       O  0.83495995  0.45466370  0.18787373    -0.79340
O1245       O  0.79013146  0.34841083  0.14335431    -0.79410
Co1246     Co  0.88432947  0.42962190  0.15258771     1.51530
Co1247     Co  0.81790992  0.39819541  0.06148252     1.51690
Co1248     Co  0.84383696  0.37355410  0.13669312     1.51570
Co1249     Co  0.83617870  0.46328114  0.13045083     1.51470
O1250       O  0.84032646  0.41738505  0.11731786    -1.41310
C1251       C  0.86548414  0.47048102  0.20759406     1.10250
C1252       C  0.76767157  0.33564880  0.11259648     1.10340
C1253       C  0.85124071  0.36183141  0.20250717     1.10270
C1254       C  0.76517957  0.41977603  0.09313541     1.10250
C1255       C  0.96469920  0.06442643  0.14471665    -0.15670
C1256       C  0.94839423  0.03845138  0.17047884    -0.30840
H1257       H  0.95037728  0.06404193  0.11688658     0.13360
H1258       H  0.96282307  0.03912831  0.19837181     0.13930
C1259       C  0.71880289  0.27943314  0.14328385    -0.15670
C1260       C  0.72928897  0.30427601  0.11506574    -0.30840
H1261       H  0.73883660  0.28189670  0.16620734     0.13360
H1262       H  0.70963004  0.29927281  0.09035214     0.13930
C1263       C  0.67641335  0.16690899  0.25015594    -0.15670
C1264       C  0.66753314  0.17183850  0.28738260    -0.30840
H1265       H  0.69062550  0.15160129  0.24575620     0.13360
H1266       H  0.65412551  0.18773609  0.29302489     0.13930
C1267       C  0.65389660  0.18574995  0.01048634    -0.15670
C1268       C  0.67396348  0.17319705  0.50323844    -0.30840
H1269       H  0.65449589  0.20379397  0.98791035     0.13360
H1270       H  0.69360592  0.20238859  0.51108815     0.13930
C1271       C  0.67341016  0.52439302  0.03047471    -0.15670
C1272       C  0.66576783  0.04306348  0.51281149    -0.30840
H1273       H  0.70247386  0.53889939  0.02505499     0.13360
H1274       H  0.64119880  0.03790534  0.52757519     0.13930
C1275       C  0.65039601  0.99475730  0.27588501    -0.15670
C1276       C  0.62194397  0.98768841  0.25075675    -0.30840
H1277       H  0.66615851  0.98121101  0.27055027     0.13360
H1278       H  0.61417670  0.50680046  0.26229236     0.13930
C1279       C  0.60621705  0.04046369  0.11921499    -0.15670
C1280       C  0.60014084  0.05521581  0.15275464    -0.30840
H1281       H  0.60826047  0.05250725  0.09072964     0.13360
H1282       H  0.59695359  0.04191689  0.18062842     0.13930
C1283       C  0.61202528  0.32093679  0.11018844    -0.15670
C1284       C  0.59232180  0.29116141  0.13118229    -0.30840
H1285       H  0.62905289  0.31969649  0.08727749     0.13360
H1286       H  0.57426639  0.29152433  0.15328818     0.13930
C1287       C  0.71685725  0.42971828  0.11829309    -0.15670
C1288       C  0.72996436  0.41900751  0.08769469    -0.30840
H1289       H  0.73059937  0.43593256  0.14803689     0.13360
H1290       H  0.71634187  0.41251478  0.05788218     0.13930
C1291       C  0.96577926  0.42036196  0.14166271    -0.15670
C1292       C  0.97251384  0.40194355  0.11265336    -0.30840
H1293       H  0.98840878  0.44002919  0.16248791     0.13360
H1294       H  0.95013242  0.38022615  0.09319987     0.13930
C1295       C  0.50355860  0.17887086  0.49197003    -0.15670
C1296       C  0.50208964  0.15605965  0.03418843    -0.30840
H1297       H  0.48744588  0.17306807  0.51809373     0.13360
H1298       H  0.47456015  0.13290853  0.03758736     0.13930
C1299       C  0.96936990  0.14593755  0.25108996    -0.15670
C1300       C  0.51994196  0.17263882  0.24531899    -0.30840
H1301       H  0.95239949  0.14616201  0.22620804     0.13360
H1302       H  0.53265548  0.19385894  0.26998543     0.13930
C1303       C  0.87776860  0.50366216  0.02083088    -0.15670
C1304       C  0.85462628  0.00679433  0.48225594    -0.30840
H1305       H  0.90157320  0.50307923  0.01040256     0.13360
H1306       H  0.86204689  0.02496139  0.50943356     0.13930
C1307       C  0.86990461  0.49134575  0.24540725    -0.15670
C1308       C  0.85052182  0.99409213  0.25764056    -0.30840
H1309       H  0.84483810  0.48343684  0.26042123     0.13360
H1310       H  0.85929427  0.01305146  0.23390408     0.13930
C1311       C  0.56489087  0.10177969  0.40118361    -0.15670
C1312       C  0.53726618  0.08910641  0.42554667    -0.30840
H1313       H  0.56438353  0.11576868  0.37481952     0.13360
H1314       H  0.53872451  0.07771059  0.45358829     0.13930
C1315       C  0.78935138  0.09257542  0.34569480    -0.15670
C1316       C  0.80031792  0.07131061  0.36274859    -0.30840
H1317       H  0.80404319  0.10932534  0.32146656     0.13360
H1318       H  0.78468621  0.05343141  0.38584041     0.13930
C1319       C  0.51310592  0.34657308  0.01516554    -0.15670
C1320       C  0.00577230  0.34823108  0.48589910    -0.30840
H1321       H  0.48523187  0.32834347  0.02365316     0.13360
H1322       H  0.03391857  0.36663945  0.47822610     0.13930
C1323       C  0.51018136  0.34909444  0.22483126    -0.15670
C1324       C  0.99211599  0.37519858  0.24174244    -0.30840
H1325       H  0.50309457  0.32181012  0.23389415     0.13360
H1326       H  0.98456271  0.39027450  0.22158740     0.13930
C1327       C  0.91786381  0.45434019  0.36278751    -0.15670
C1328       C  0.91594187  0.46948232  0.39855563    -0.30840
H1329       H  0.91579360  0.46572867  0.33496541     0.13360
H1330       H  0.91943496  0.45888197  0.42636080     0.13930
C1331       C  0.93929763  0.22760791  0.36141251    -0.15670
C1332       C  0.92922984  0.20024814  0.38642702    -0.30840
H1333       H  0.94996372  0.22566233  0.33292477     0.13360
H1334       H  0.91596870  0.20079755  0.41345065     0.13930
C1335       C  0.54752821  0.45645111  0.38122051    -0.15670
C1336       C  0.58250219  0.46579810  0.37474002    -0.30840
H1337       H  0.54207939  0.47794748  0.39199963     0.13360
H1338       H  0.58828543  0.44402268  0.36627308     0.13930
C1339       C  0.80046306  0.23261467  0.36635086    -0.15670
C1340       C  0.79160058  0.19911006  0.37849133    -0.30840
H1341       H  0.77935020  0.23658113  0.35209409     0.13360
H1342       H  0.81145393  0.19581087  0.39652829     0.13930
C1343       C  0.85562725  0.34088127  0.49837313    -0.15670
C1344       C  0.85561844  0.33310961  0.02365663    -0.30840
H1345       H  0.84561925  0.32096734  0.52114628     0.13360
H1346       H  0.86862864  0.31716546  0.03048386     0.13930
C1347       C  0.86157930  0.32804241  0.25531944    -0.15670
C1348       C  0.84977051  0.35081466  0.24400198    -0.30840
H1349       H  0.86822547  0.31343521  0.23257031     0.13360
H1350       H  0.84648863  0.36799146  0.26685817     0.13930
O1351       O  0.94186862  0.43180584  0.85187924    -0.79370
O1352       O  0.96637514  0.34179087  0.94868074    -0.79390
O1353       O  0.85469527  0.32570912  0.91768536    -0.79400
O1354       O  0.00818733  0.38281103  0.86206328    -0.79340
O1355       O  0.90277423  0.34175078  0.95765883    -0.79470
O1356       O  0.98386118  0.41092190  0.89623208    -0.79390
O1357       O  0.98872342  0.32217297  0.90135994    -0.79370
O1358       O  0.90121471  0.39346053  0.89223913    -0.79410
C1359       C  0.91769605  0.42521899  0.87673865     1.10320
C1360       C  0.99176487  0.33720133  0.93617943     1.10200
C1361       C  0.87043851  0.33536039  0.95243404     1.10340
C1362       C  0.51575474  0.40997165  0.87536499     1.10220
O1363       O  0.97132162  0.39666692  0.81232643    -0.79370
O1364       O  0.86283701  0.27080891  0.90899656    -0.79450
O1365       O  0.84361282  0.34341686  0.84456582    -0.79380
O1366       O  0.92789800  0.27832784  0.84125530    -0.79360
O1367       O  0.92547304  0.27024168  0.90591310    -0.79420
O1368       O  0.89596108  0.36512778  0.81414081    -0.79380
O1369       O  0.95296278  0.33879537  0.79715185    -0.79340
O1370       O  0.85870410  0.28668723  0.84779576    -0.79410
Co1371     Co  0.93921270  0.38634159  0.85890745     1.51530
Co1372     Co  0.91550616  0.30871583  0.92811141     1.51690
Co1373     Co  0.88247576  0.33927861  0.86788135     1.51570
Co1374     Co  0.96639249  0.33026486  0.85118554     1.51470
O1375       O  0.92850418  0.33810689  0.87872533    -1.41310
C1376       C  0.97008850  0.37204419  0.78797312     1.10250
C1377       C  0.84740649  0.26265047  0.87358447     1.10340
C1378       C  0.86219159  0.35773970  0.81483242     1.10270
C1379       C  0.92192536  0.25798756  0.86978578     1.10250
O1380       O  0.93141316  0.13841176  0.77818897    -0.79370
O1381       O  0.94068363  0.04724249  0.86206313    -0.79390
O1382       O  0.50323018  0.10396310  0.87754379    -0.79400
O1383       O  0.86215358  0.03609420  0.81501923    -0.79340
O1384       O  0.98636377  0.07608655  0.92815576    -0.79470
O1385       O  0.91848468  0.07205521  0.79944228    -0.79390
O1386       O  0.88489256  0.00989935  0.87678104    -0.79370
O1387       O  0.97954888  0.13940978  0.80899334    -0.79410
C1388       C  0.96401476  0.14484517  0.77805090     1.10320
C1389       C  0.91450123  0.01476597  0.86320363     1.10200
C1390       C  0.50855556  0.08643693  0.90554640     1.10340
C1391       C  0.88674248  0.04517060  0.79020906     1.10220
O1392       O  0.86636439  0.09758965  0.81245329    -0.79370
O1393       O  0.95594429  0.11505760  0.95729412    -0.79450
O1394       O  0.97265992  0.18270690  0.87528032    -0.79380
O1395       O  0.86880753  0.05492718  0.93290749    -0.79360
O1396       O  0.91388246  0.04447238  0.94249606    -0.79420
O1397       O  0.91646073  0.15598199  0.85063176    -0.79380
O1398       O  0.84837278  0.08035600  0.87209580    -0.79340
O1399       O  0.99984681  0.15753020  0.92739192    -0.79410
Co1400     Co  0.91952457  0.11515164  0.82666656     1.51530
Co1401     Co  0.94882439  0.08279442  0.90814216     1.51690
Co1402     Co  0.97979919  0.13983290  0.87106435     1.51570
Co1403     Co  0.86964582  0.04883120  0.87475526     1.51470
O1404       O  0.92065187  0.09852280  0.87925049    -1.41310
C1405       C  0.84452133  0.09231970  0.83962074     1.10250
C1406       C  0.98545300  0.14553269  0.95946037     1.10340
C1407       C  0.94368600  0.18316428  0.86846101     1.10270
C1408       C  0.88602471  0.04472499  0.95491920     1.10250
O1409       O  0.50986735  0.40282142  0.61689767    -0.79370
O1410       O  0.66106906  0.49221211  0.58014133    -0.79390
O1411       O  0.57067904  0.47790397  0.60372524    -0.79400
O1412       O  0.54953424  0.39825513  0.55175427    -0.79340
O1413       O  0.62641520  0.51418289  0.63154951    -0.79470
O1414       O  0.52139421  0.34948786  0.58415094    -0.79390
O1415       O  0.60963260  0.45723742  0.54417193    -0.79370
O1416       O  0.52240414  0.44888693  0.66090322    -0.79410
C1417       C  0.50078765  0.42506842  0.63396150     1.10320
C1418       C  0.63852526  0.48775223  0.55159904     1.10200
C1419       C  0.60582994  0.01376812  0.61271314     1.10340
C1420       C  0.52386719  0.36567634  0.55252319     1.10220
O1421       O  0.57396743  0.35830286  0.64550358    -0.79370
O1422       O  0.63548333  0.46879556  0.69255740    -0.79450
O1423       O  0.55100820  0.40897302  0.69114024    -0.79380
O1424       O  0.65252838  0.42466333  0.57347045    -0.79360
O1425       O  0.66776149  0.44618762  0.63707020    -0.79420
O1426       O  0.50787062  0.35265031  0.66691241    -0.79380
O1427       O  0.58864620  0.36069585  0.58222816    -0.79340
O1428       O  0.59155718  0.48126985  0.68757852    -0.79410
Co1429     Co  0.54635809  0.38424630  0.63386564     1.51530
Co1430     Co  0.64466899  0.47698657  0.63526434     1.51690
Co1431     Co  0.56119187  0.44231674  0.64436111     1.51570
Co1432     Co  0.59950031  0.41097224  0.56505967     1.51470
O1433       O  0.59497885  0.42931168  0.61892516    -1.41310
C1434       C  0.58473122  0.34663780  0.61611582     1.10250
C1435       C  0.61667958  0.48087643  0.70841407     1.10340
C1436       C  0.52297590  0.37708991  0.69629009     1.10270
C1437       C  0.67280377  0.43189662  0.60553570     1.10250
O1438       O  0.69281715  0.16905653  0.85387219    -0.79370
O1439       O  0.63672885  0.00616377  0.89029280    -0.79390
O1440       O  0.66657958  0.05676869  0.80373409    -0.79400
O1441       O  0.59742596  0.07558146  0.92626531    -0.79340
O1442       O  0.68855287  0.02729140  0.83658936    -0.79470
O1443       O  0.62968647  0.11719714  0.88312234    -0.79390
O1444       O  0.60929844  0.03602226  0.86946760    -0.79370
O1445       O  0.66775518  0.11990654  0.81358482    -0.79410
C1446       C  0.67629918  0.15307676  0.82041958     1.10320
C1447       C  0.60862288  0.00590688  0.87488936     1.10200
C1448       C  0.66952548  0.02865146  0.80706976     1.10340
C1449       C  0.59958278  0.09727154  0.89994814     1.10220
O1450       O  0.68139040  0.17236416  0.93446817    -0.79370
O1451       O  0.74297576  0.08205021  0.89703082    -0.79450
O1452       O  0.74539231  0.15716147  0.84766186    -0.79380
O1453       O  0.63442704  0.04380246  0.94983121    -0.79360
O1454       O  0.69114101  0.05623222  0.95358691    -0.79420
O1455       O  0.73723531  0.15906266  0.91262968    -0.79380
O1456       O  0.66684874  0.11799760  0.95667780    -0.79340
O1457       O  0.74321722  0.09226641  0.83288718    -0.79410
Co1458     Co  0.68423390  0.13609346  0.90001762     1.51530
Co1459     Co  0.69033243  0.04622952  0.89428994     1.51630
Co1460     Co  0.70408392  0.10554226  0.82678384     1.51570
Co1461     Co  0.63990995  0.07855929  0.90879814     1.51470
O1462       O  0.68394600  0.08970961  0.88024945    -1.41310
C1463       C  0.67176990  0.15088242  0.96283012     1.10250
C1464       C  0.75963304  0.09248310  0.86543432     1.10340
C1465       C  0.75770795  0.17097380  0.88359768     1.10270
C1466       C  0.66033352  0.04322881  0.96880544     1.10250
O1467       O  0.53324338  0.08901529  0.66665681    -0.79370
O1468       O  0.60621221  0.16864199  0.56218590    -0.79390
O1469       O  0.54240968  0.17465885  0.56184088    -0.79400
O1470       O  0.64337920  0.14052169  0.64347893    -0.79340
O1471       O  0.59301532  0.22336125  0.54236411    -0.79470
O1472       O  0.58753675  0.11057902  0.61598806    -0.79390
O1473       O  0.66213445  0.19112001  0.58908003    -0.79370
O1474       O  0.52280687  0.11200917  0.61204495    -0.79410
C1475       C  0.51262847  0.08563878  0.63630028     1.10320
C1476       C  0.63769497  0.17234762  0.56077273     1.10200
C1477       C  0.55948194  0.19858285  0.53578532     1.10340
C1478       C  0.61780753  0.11194871  0.62427227     1.10220
O1479       O  0.60440025  0.13147531  0.70070365    -0.79370
O1480       O  0.60282751  0.25211614  0.61806739    -0.79450
O1481       O  0.51905068  0.15846868  0.67497409    -0.79380
O1482       O  0.66945377  0.24491458  0.65436657    -0.79360
O1483       O  0.65575136  0.24598940  0.59100859    -0.79420
O1484       O  0.56268164  0.15674150  0.70673013    -0.79380
O1485       O  0.64855685  0.19009108  0.70820011    -0.79340
O1486       O  0.54693001  0.21849947  0.63422434    -0.79410
Co1487     Co  0.57298081  0.13574050  0.65849822     1.51530
Co1488     Co  0.60252846  0.20846557  0.59158760     1.51690
Co1489     Co  0.54140001  0.16812522  0.62291667     1.51570
Co1490     Co  0.65224814  0.19202336  0.64848269     1.51470
O1491       O  0.59968531  0.18510065  0.64111811    -1.41310
C1492       C  0.63059864  0.15824403  0.72196992     1.10250
C1493       C  0.57434961  0.25022073  0.63053716     1.10340
C1494       C  0.53413962  0.15828996  0.70737322     1.10270
C1495       C  0.67587331  0.26172889  0.62293982     1.10250
O1496       O  0.90552513  0.44092181  0.66146791    -0.79370
O1497       O  0.79646893  0.44309195  0.54610594    -0.79390
O1498       O  0.82879710  0.36050802  0.56517427    -0.79400
O1499       O  0.90126821  0.51146138  0.62476996    -0.79340
O1500       O  0.83424926  0.40859288  0.53990028    -0.79470
O1501       O  0.90005198  0.49162050  0.68519202    -0.79390
O1502       O  0.85163308  0.49093754  0.56091949    -0.79370
O1503       O  0.88734645  0.39818575  0.61372153    -0.79410
C1504       C  0.91283955  0.42333080  0.63623550     1.10320
C1505       C  0.82328064  0.47356228  0.53721318     1.10200
C1506       C  0.83727961  0.38032702  0.53641568     1.10340
C1507       C  0.91733578  0.51296008  0.65789046     1.10220
O1508       O  0.81892346  0.44408124  0.69423212    -0.79370
O1509       O  0.76138854  0.36806464  0.55914898    -0.79450
O1510       O  0.84049384  0.37540144  0.67955184    -0.79380
O1511       O  0.79539061  0.47526673  0.61521887    -0.79360
O1512       O  0.77054954  0.41561488  0.62170683    -0.79420
O1513       O  0.86572975  0.42463717  0.72422957    -0.79380
O1514       O  0.84733323  0.50107788  0.67842334    -0.79340
O1515       O  0.77878274  0.35842039  0.61933221    -0.79410
Co1516     Co  0.85921082  0.43858945  0.67364962     1.51530
Co1517     Co  0.80321866  0.41070702  0.58296722     1.51690
Co1518     Co  0.83496253  0.38319370  0.61958959     1.51570
Co1519     Co  0.84874690  0.49125766  0.61928990     1.51470
O1520       O  0.84647063  0.44049024  0.61773831    -1.41310
C1521       C  0.83139381  0.47788456  0.70427076     1.10250
C1522       C  0.75475977  0.34842122  0.58897031     1.10340
C1523       C  0.85300115  0.39029767  0.71544049     1.10270
C1524       C  0.76823353  0.44453110  0.62308578     1.10250
C1525       C  0.98503415  0.06123573  0.63169862    -0.15670
C1526       C  0.96497357  0.04092777  0.66115284    -0.30840
H1527       H  0.97378240  0.05314230  0.60083776     0.13360
H1528       H  0.97579465  0.04909838  0.69213896     0.13930
C1529       C  0.70855909  0.29801250  0.62325102    -0.15670
C1530       C  0.71866750  0.31571758  0.58993866    -0.30840
H1531       H  0.72611742  0.30905668  0.65086313     0.13360
H1532       H  0.70093689  0.30510685  0.56243742     0.13930
C1533       C  0.63974203  0.14889549  0.76097689    -0.15670
C1534       C  0.66681397  0.17122254  0.78880939    -0.30840
H1535       H  0.62344206  0.11946817  0.76580574     0.13360
H1536       H  0.68295421  0.20103604  0.78664807     0.13930
C1537       C  0.64512070  0.15466599  0.52583335    -0.15670
C1538       C  0.66522030  0.16136327  0.00290842    -0.30840
H1539       H  0.62332169  0.12695120  0.51503933     0.13360
H1540       H  0.66432037  0.14383549  0.02631308     0.13930
C1541       C  0.64358225  0.51714955  0.52634866    -0.15670
C1542       C  0.65113860  0.02298607  0.00561070    -0.30840
H1543       H  0.61835689  0.51484472  0.51384460     0.13360
H1544       H  0.62215831  0.00907734  0.01169752     0.13930
C1545       C  0.65301981  0.99941397  0.77389453    -0.15670
C1546       C  0.62593759  0.99703645  0.74899097    -0.30840
H1547       H  0.66562817  0.98288348  0.76733458     0.13360
H1548       H  0.61139624  0.51281421  0.75768225     0.13930
C1549       C  0.59898489  0.04508761  0.60695701    -0.15670
C1550       C  0.62471733  0.08063216  0.61693885    -0.30840
H1551       H  0.57115167  0.03826795  0.59815732     0.13360
H1552       H  0.65232368  0.08665925  0.62561815     0.13930
C1553       C  0.59230440  0.31552444  0.61896630    -0.15670
C1554       C  0.57181215  0.28442885  0.63826204    -0.30840
H1555       H  0.61226040  0.31581789  0.59913118     0.13360
H1556       H  0.54941022  0.28223827  0.65519732     0.13930
C1557       C  0.70418093  0.42546616  0.60463907    -0.15670
C1558       C  0.73347703  0.44302451  0.63121237    -0.30840
H1559       H  0.70518570  0.40926660  0.57895000     0.13360
H1560       H  0.73427651  0.46217889  0.65473243     0.13930
C1561       C  0.95144206  0.43308404  0.63573192    -0.15670
C1562       C  0.96251397  0.40963638  0.62344614    -0.30840
H1563       H  0.97131856  0.45957104  0.65134428     0.13360
H1564       H  0.94304116  0.38274115  0.60843297     0.13930
C1565       C  0.51215264  0.16885329  0.99847968    -0.15670
C1566       C  0.54050678  0.19475504  0.49669289    -0.30840
H1567       H  0.53929646  0.19290325  0.99572460     0.13360
H1568       H  0.55696654  0.20179284  0.47078650     0.13930
C1569       C  0.98340279  0.15535435  0.74116752    -0.15670
C1570       C  0.51734477  0.15679574  0.74515051    -0.30840
H1571       H  0.96742478  0.14696776  0.71260533     0.13360
H1572       H  0.53246207  0.15735483  0.77235803     0.13930
C1573       C  0.82283383  0.48824894  0.49852238    -0.15670
C1574       C  0.87135452  0.03005133  0.99296930    -0.30840
H1575       H  0.81185936  0.46896440  0.47208929     0.13360
H1576       H  0.84498908  0.02674963  0.00014462     0.13930
C1577       C  0.83717824  0.49152039  0.74722382    -0.15670
C1578       C  0.87827253  0.02745912  0.74941168    -0.30840
H1579       H  0.81520630  0.47797040  0.76727260     0.13360
H1580       H  0.90128039  0.03606647  0.73057736     0.13930
C1581       C  0.56780025  0.09956712  0.88818448    -0.15670
C1582       C  0.53619487  0.07661835  0.90321495    -0.30840
H1583       H  0.57130585  0.12268250  0.87145931     0.13360
H1584       H  0.53308599  0.05407217  0.92075019     0.13930
C1585       C  0.79745443  0.10100834  0.86670974    -0.15670
C1586       C  0.81369902  0.09852887  0.83405626    -0.30840
H1587       H  0.81018905  0.10353149  0.89635283     0.13360
H1588       H  0.80185460  0.09640575  0.80408607     0.13930
C1589       C  0.49843928  0.34937722  0.51661998    -0.15670
C1590       C  0.02384468  0.34739907  0.96365637    -0.30840
H1591       H  0.47538142  0.32103744  0.51536200     0.13360
H1592       H  0.03979312  0.33389146  0.95948506     0.13930
C1593       C  0.50999870  0.37138883  0.73672904    -0.15670
C1594       C  0.99198748  0.38330626  0.75189765    -0.30840
H1595       H  0.52993656  0.38857229  0.76117248     0.13360
H1596       H  0.00288996  0.41167449  0.74379555     0.13930
C1597       C  0.90827691  0.45349284  0.88791231    -0.15670
C1598       C  0.91843776  0.48242946  0.86563446    -0.30840
H1599       H  0.89282829  0.45053688  0.91414579     0.13360
H1600       H  0.93486199  0.48582365  0.84016557     0.13930
C1601       C  0.91794398  0.22225247  0.86157453    -0.15670
C1602       C  0.94208567  0.21566797  0.88038196    -0.30840
H1603       H  0.89959686  0.20409042  0.83657936     0.13360
H1604       H  0.96288651  0.23601633  0.90244130     0.13930
C1605       C  0.55423545  0.44189221  0.88098007    -0.15670
C1606       C  0.56312952  0.47623633  0.87123798    -0.30840
H1607       H  0.57580894  0.43655173  0.89058843     0.13360
H1608       H  0.54128701  0.48057178  0.85993401     0.13930
C1609       C  0.81395213  0.22608051  0.86334018    -0.15670
C1610       C  0.79504375  0.20350665  0.89181089    -0.30840
H1611       H  0.80268303  0.21934174  0.83245043     0.13360
H1612       H  0.80545434  0.21134667  0.92295749     0.13930
C1613       C  0.85185494  0.34104209  0.98579296    -0.15670
C1614       C  0.85176679  0.37113554  0.50108157    -0.30840
H1615       H  0.83646631  0.35479457  0.97942483     0.13360
H1616       H  0.86093500  0.39044563  0.47767394     0.13930
C1617       C  0.84636929  0.36820449  0.78217529    -0.15670
C1618       C  0.85646348  0.36773692  0.74511691    -0.30840
H1619       H  0.82976753  0.38046930  0.78943170     0.13360
H1620       H  0.87126365  0.35359684  0.73740421     0.13930
O1621       O  0.95330964  0.92975813  0.34923096    -0.79370
O1622       O  0.96589454  0.84056291  0.45179668    -0.79390
O1623       O  0.85739019  0.82434878  0.40706833    -0.79400
O1624       O  0.01627380  0.87897665  0.36376932    -0.79340
O1625       O  0.90480880  0.84357030  0.44868238    -0.79470
O1626       O  0.99172595  0.90774439  0.39576675    -0.79390
O1627       O  0.99371052  0.82153580  0.41064083    -0.79370
O1628       O  0.90631057  0.88998978  0.38265313    -0.79410
C1629       C  0.92822222  0.92336765  0.37278143     1.10320
C1630       C  0.99204714  0.83551471  0.44449419     1.10200
C1631       C  0.87310624  0.83817473  0.44124921     1.10340
C1632       C  0.50685595  0.92436498  0.36605768     1.10220
O1633       O  0.97837297  0.88931057  0.31299457    -0.79370
O1634       O  0.86559094  0.76910676  0.40585229    -0.79450
O1635       O  0.85136305  0.83768703  0.33023599    -0.79380
O1636       O  0.93642183  0.77250099  0.34938632    -0.79360
O1637       O  0.92852637  0.76709389  0.41393317    -0.79420
O1638       O  0.90784738  0.86253519  0.30920868    -0.79380
O1639       O  0.96104305  0.83070694  0.30062871    -0.79340
O1640       O  0.86599563  0.78219476  0.34268680    -0.79410
Co1641     Co  0.94745608  0.88306294  0.35791147     1.51530
Co1642     Co  0.91726291  0.80723686  0.42789549     1.51690
Co1643     Co  0.88877653  0.83526153  0.36027295     1.51570
Co1644     Co  0.97385768  0.82568775  0.35650227     1.51470
O1645       O  0.93408644  0.83437013  0.37777552    -1.41310
C1646       C  0.97329598  0.86294431  0.28896590     1.10250
C1647       C  0.85225385  0.75954971  0.36959565     1.10340
C1648       C  0.87300719  0.84972765  0.30228233     1.10270
C1649       C  0.92780458  0.75316067  0.37928233     1.10250
O1650       O  0.94430103  0.64394817  0.29894901    -0.79370
O1651       O  0.91218151  0.51790314  0.43430250    -0.79390
O1652       O  0.50214704  0.59770938  0.37160101    -0.79400
O1653       O  0.87337622  0.53241960  0.31243333    -0.79340
O1654       O  0.97994454  0.57413317  0.42374844    -0.79470
O1655       O  0.93068119  0.57411742  0.30715273    -0.79390
O1656       O  0.89375756  0.50491142  0.37061129    -0.79370
O1657       O  0.99696512  0.65171008  0.32678401    -0.79410
C1658       C  0.97918273  0.65717878  0.29818539     1.10320
C1659       C  0.90747770  0.49937435  0.40130876     1.10200
C1660       C  0.50835670  0.59142758  0.40650544     1.10340
C1661       C  0.90267173  0.54361404  0.29495771     1.10220
O1662       O  0.86998940  0.58940240  0.31575538    -0.79370
O1663       O  0.96001570  0.62732346  0.45562609    -0.79450
O1664       O  0.96306300  0.66516171  0.38725693    -0.79380
O1665       O  0.85181018  0.52043040  0.42633077    -0.79360
O1666       O  0.89121651  0.57081192  0.46351666    -0.79420
O1667       O  0.90726524  0.64105233  0.36854324    -0.79380
O1668       O  0.84125369  0.55929788  0.36748341    -0.79340
O1669       O  0.00394061  0.64285674  0.41520269    -0.79410
Co1670     Co  0.92140199  0.60882998  0.34037249     1.51530
Co1671     Co  0.93475240  0.57354523  0.44173695     1.51690
Co1672     Co  0.96607378  0.62005258  0.36844662     1.51570
Co1673     Co  0.86813157  0.53242120  0.37058473     1.51470
O1674       O  0.91602424  0.58053524  0.38860269    -1.41310
C1675       C  0.84284405  0.57768622  0.33779252     1.10250
C1676       C  0.99378243  0.64543628  0.44988343     1.10340
C1677       C  0.93493085  0.66774233  0.38544892     1.10270
C1678       C  0.86152915  0.54021989  0.45922245     1.10250
O1679       O  0.51489779  0.89611233  0.10738781    -0.79370
O1680       O  0.67325613  0.98830691  0.09007198    -0.79390
O1681       O  0.58152225  0.97627227  0.10486065    -0.79400
O1682       O  0.56222239  0.89712475  0.04181595    -0.79340
O1683       O  0.63454615  0.00685940  0.14048516    -0.79470
O1684       O  0.53126145  0.84745409  0.07289608    -0.79390
O1685       O  0.62616721  0.95850381  0.04600918    -0.79370
O1686       O  0.52451822  0.94122304  0.15162461    -0.79410
C1687       C  0.50439747  0.91745133  0.12381897     1.10320
C1688       C  0.65689168  0.98669704  0.05686977     1.10200
C1689       C  0.60486243  0.50851775  0.11968537     1.10340
C1690       C  0.53454993  0.86545469  0.04249423     1.10220
O1691       O  0.57830458  0.85252828  0.13983752    -0.79370
O1692       O  0.63313013  0.95524884  0.19712842    -0.79450
O1693       O  0.54454499  0.89545059  0.18267524    -0.79380
O1694       O  0.66248003  0.92139540  0.07733862    -0.79360
O1695       O  0.66944707  0.93402381  0.14287759    -0.79420
O1696       O  0.50904874  0.84005915  0.15069632    -0.79380
O1697       O  0.59654098  0.85638095  0.07802362    -0.79340
O1698       O  0.58980743  0.96854958  0.18828042    -0.79410
Co1699     Co  0.55086079  0.87737469  0.12613214     1.51530
Co1700     Co  0.64933595  0.96757681  0.14183930     1.51690
Co1701     Co  0.56409254  0.93487543  0.13981120     1.51570
Co1702     Co  0.61064412  0.90892670  0.06343682     1.51470
O1703       O  0.60017688  0.92349036  0.11710995    -1.41310
C1704       C  0.58964806  0.84082453  0.11138770     1.10250
C1705       C  0.61402566  0.96818046  0.21085737     1.10340
C1706       C  0.51747506  0.86148717  0.18217156     1.10270
C1707       C  0.67956600  0.92559048  0.11086362     1.10250
O1708       O  0.69186035  0.66667543  0.35153935    -0.79370
O1709       O  0.64455309  0.50835207  0.39821409    -0.79390
O1710       O  0.66918302  0.55449153  0.30482884    -0.79400
O1711       O  0.59836498  0.57363564  0.42963795    -0.79340
O1712       O  0.69225410  0.52718081  0.34021420    -0.79470
O1713       O  0.62975590  0.61585174  0.38616120    -0.79390
O1714       O  0.61213197  0.53247213  0.37565774    -0.79370
O1715       O  0.66859775  0.61695271  0.31230748    -0.79410
C1716       C  0.67548702  0.64965188  0.31835614     1.10320
C1717       C  0.61458623  0.50423569  0.38273179     1.10200
C1718       C  0.67285036  0.52698765  0.31010272     1.10340
C1719       C  0.59985533  0.59570833  0.40395224     1.10220
O1720       O  0.68574054  0.67469567  0.43174724    -0.79370
O1721       O  0.74924831  0.58800607  0.39488878    -0.79450
O1722       O  0.74673551  0.65674078  0.34453834    -0.79380
O1723       O  0.64445537  0.54917330  0.45561485    -0.79360
O1724       O  0.70282169  0.56871193  0.45297848    -0.79420
O1725       O  0.73937119  0.65965600  0.40956395    -0.79380
O1726       O  0.66724583  0.62102247  0.45772171    -0.79340
O1727       O  0.74664848  0.59183330  0.33017466    -0.79410
Co1728     Co  0.68597892  0.63619484  0.39943123     1.51530
Co1729     Co  0.69724408  0.55089322  0.39641387     1.51630
Co1730     Co  0.70608186  0.60427494  0.32562905     1.51570
Co1731     Co  0.64199405  0.57835934  0.41141651     1.51470
O1732       O  0.68586447  0.59014700  0.38006234    -1.41310
C1733       C  0.67555875  0.65533494  0.46168867     1.10250
C1734       C  0.76385941  0.59221030  0.36215534     1.10340
C1735       C  0.75951607  0.67092513  0.38023024     1.10270
C1736       C  0.67439111  0.55451757  0.47208475     1.10250
O1737       O  0.53113598  0.60046308  0.16385730    -0.79370
O1738       O  0.62075544  0.69783482  0.05009217    -0.79390
O1739       O  0.53307229  0.66330578  0.05647311    -0.79400
O1740       O  0.64424855  0.63991335  0.13104032    -0.79340
O1741       O  0.57653612  0.72199083  0.05659393    -0.79470
O1742       O  0.58600248  0.60249538  0.12714509    -0.79390
O1743       O  0.66370811  0.69473862  0.08300566    -0.79370
O1744       O  0.51157784  0.60728367  0.10537021    -0.79410
C1745       C  0.50798741  0.58744311  0.13401862     1.10320
C1746       C  0.64811749  0.69423854  0.05011990     1.10200
C1747       C  0.54723709  0.69366581  0.04020273     1.10340
C1748       C  0.61766266  0.60733230  0.12476908     1.10220
O1749       O  0.59599602  0.62311691  0.20640296    -0.79370
O1750       O  0.60063227  0.74308454  0.14260777    -0.79450
O1751       O  0.52268577  0.65745865  0.17221083    -0.79380
O1752       O  0.66193964  0.74348918  0.14723880    -0.79360
O1753       O  0.65420732  0.76597172  0.09113667    -0.79420
O1754       O  0.57727284  0.67529560  0.19926693    -0.79380
O1755       O  0.64117543  0.68102907  0.20021253    -0.79340
O1756       O  0.54298583  0.71454460  0.12202297    -0.79410
Co1757     Co  0.58351906  0.64097411  0.16197980     1.51530
Co1758     Co  0.61170847  0.71864349  0.09791229     1.51690
Co1759     Co  0.53205193  0.66133995  0.11450991     1.51570
Co1760     Co  0.64455886  0.68790233  0.13808514     1.51470
O1761       O  0.58542016  0.66912191  0.11746839    -1.41310
C1762       C  0.62677048  0.65064481  0.21905457     1.10250
C1763       C  0.57161390  0.74386082  0.13644827     1.10340
C1764       C  0.54468886  0.66768214  0.20281353     1.10270
C1765       C  0.67438740  0.76919178  0.12221883     1.10250
O1766       O  0.92010692  0.94746070  0.12660804    -0.79370
O1767       O  0.86076050  0.95451351  0.03219730    -0.79390
O1768       O  0.83068026  0.84376963  0.07803876    -0.79400
O1769       O  0.89325591  0.00651840  0.13020556    -0.79340
O1770       O  0.85418784  0.89006286  0.04030172    -0.79470
O1771       O  0.90167829  0.97875356  0.18040301    -0.79390
O1772       O  0.84518527  0.99000936  0.06619247    -0.79370
O1773       O  0.89491297  0.89061363  0.11128979    -0.79410
C1774       C  0.92389229  0.92181658  0.11308785     1.10320
C1775       C  0.86363458  0.98541340  0.03982812     1.10200
C1776       C  0.84391017  0.85679288  0.04498617     1.10340
C1777       C  0.91234337  0.00669863  0.16022348     1.10220
O1778       O  0.83337018  0.91640389  0.19146615    -0.79370
O1779       O  0.78033838  0.86159749  0.06778647    -0.79450
O1780       O  0.84859239  0.85191065  0.16778769    -0.79380
O1781       O  0.78656936  0.94129463  0.11627036    -0.79360
O1782       O  0.78464029  0.92652433  0.05245377    -0.79420
O1783       O  0.89206105  0.90769603  0.19584744    -0.79380
O1784       O  0.83530352  0.96808922  0.17970979    -0.79340
O1785       O  0.79035837  0.86196402  0.13341311    -0.79410
Co1786     Co  0.87415137  0.92769607  0.15506053     1.51530
Co1787     Co  0.82170435  0.90917662  0.05101590     1.51690
Co1788     Co  0.84360495  0.88124686  0.12573279     1.51570
Co1789     Co  0.83993868  0.97306511  0.12191893     1.51470
O1790       O  0.84692224  0.92938107  0.10609423    -1.41310
C1791       C  0.83188481  0.94470440  0.20399974     1.10250
C1792       C  0.76845280  0.85148854  0.10205742     1.10340
C1793       C  0.87342513  0.87207070  0.19606802     1.10270
C1794       C  0.76904146  0.92992003  0.08282696     1.10250
C1795       C  0.96308823  0.56534804  0.12897378    -0.15670
C1796       C  0.95476335  0.53035619  0.11960382    -0.30840
H1797       H  0.94158614  0.57219556  0.13096959     0.13360
H1798       H  0.97698173  0.52467509  0.11612514     0.13930
C1799       C  0.71194209  0.80187266  0.13047126    -0.15670
C1800       C  0.72840806  0.82543314  0.10219840    -0.30840
H1801       H  0.72779124  0.80351457  0.15748969     0.13360
H1802       H  0.71241886  0.82227084  0.07465228     0.13930
C1803       C  0.64554239  0.64413195  0.25286929    -0.15670
C1804       C  0.66341862  0.66590800  0.28655841    -0.30840
H1805       H  0.64075587  0.61604296  0.25049921     0.13360
H1806       H  0.66756932  0.69362759  0.29106408     0.13930
C1807       C  0.66117888  0.69003577  0.01147971    -0.15670
C1808       C  0.67292330  0.67181156  0.50074103    -0.30840
H1809       H  0.65211891  0.69892581  0.98570516     0.13360
H1810       H  0.68924019  0.70176353  0.50678160     0.13930
C1811       C  0.67365468  0.01671799  0.02896600    -0.15670
C1812       C  0.67523290  0.53925302  0.51043027    -0.30840
H1813       H  0.70307194  0.03113910  0.02550310     0.13360
H1814       H  0.70032632  0.54031153  0.52116814     0.13930
C1815       C  0.65669097  0.49653387  0.27824059    -0.15670
C1816       C  0.62845556  0.49222895  0.25401085    -0.30840
H1817       H  0.67055529  0.48124456  0.27160734     0.13360
H1818       H  0.60602466  0.00084954  0.25758829     0.13930
C1819       C  0.59863895  0.54018694  0.11416399    -0.15670
C1820       C  0.62516228  0.57615506  0.11993893    -0.30840
H1821       H  0.57042061  0.53338673  0.10786676     0.13360
H1822       H  0.65348909  0.58297378  0.12522340     0.13930
C1823       C  0.59298928  0.80727454  0.11562555    -0.15670
C1824       C  0.57220288  0.77976695  0.13950488    -0.30840
H1825       H  0.61053094  0.80328142  0.09551606     0.13360
H1826       H  0.55167524  0.78150846  0.15657293     0.13930
C1827       C  0.71393927  0.92441359  0.11241516    -0.15670
C1828       C  0.73099814  0.92310263  0.07941421    -0.30840
H1829       H  0.72737143  0.92820743  0.14192711     0.13360
H1830       H  0.71785560  0.91924811  0.04974268     0.13930
C1831       C  0.96147791  0.92832733  0.10523545    -0.15670
C1832       C  0.96866511  0.90103407  0.09550422    -0.30840
H1833       H  0.98455150  0.95605099  0.11351058     0.13360
H1834       H  0.94558961  0.87318069  0.08786036     0.13930
C1835       C  0.50053545  0.66871153  0.49030976    -0.15670
C1836       C  0.52926921  0.69403025  0.00128390    -0.30840
H1837       H  0.48591549  0.65938024  0.51734523     0.13360
H1838       H  0.54684014  0.70624991  0.97682632     0.13930
C1839       C  0.99713856  0.67423972  0.26181472    -0.15670
C1840       C  0.53011319  0.66389308  0.24263381    -0.30840
H1841       H  0.98224810  0.68127534  0.24029819     0.13360
H1842       H  0.54757297  0.66658928  0.26865534     0.13930
C1843       C  0.88619622  0.01441747  0.01430409    -0.15670
C1844       C  0.84269081  0.52500369  0.49544472    -0.30840
H1845       H  0.91131874  0.01569355  0.00548844     0.13360
H1846       H  0.85296335  0.54346825  0.52259858     0.13930
C1847       C  0.83472642  0.95686628  0.24752161    -0.15670
C1848       C  0.90201975  0.52157296  0.25917153    -0.30840
H1849       H  0.82792936  0.93725427  0.27038420     0.13360
H1850       H  0.92683834  0.53071800  0.24326118     0.13930
C1851       C  0.56741595  0.59801094  0.39291096    -0.15670
C1852       C  0.53885421  0.58546097  0.41595525    -0.30840
H1853       H  0.56801055  0.61238157  0.36647831     0.13360
H1854       H  0.53920526  0.57323795  0.44377272     0.13930
C1855       C  0.79900843  0.59308151  0.36278227    -0.15670
C1856       C  0.81365945  0.58661518  0.33073675    -0.30840
H1857       H  0.81124017  0.59455234  0.39240489     0.13360
H1858       H  0.80322068  0.58597849  0.30050098     0.13930
C1859       C  0.50680260  0.85149614  0.00831033    -0.15670
C1860       C  0.01983488  0.84554838  0.47699470    -0.30840
H1861       H  0.48380947  0.82309943  0.00677040     0.13360
H1862       H  0.04874383  0.86059445  0.47078275     0.13930
C1863       C  0.49618783  0.84924075  0.21819762    -0.15670
C1864       C  0.98354978  0.87176890  0.24836533    -0.30840
H1865       H  0.48577491  0.82144410  0.22784138     0.13360
H1866       H  0.98048472  0.89398367  0.23687596     0.13930
C1867       C  0.92370018  0.95368056  0.38953616    -0.15670
C1868       C  0.94375905  0.98812768  0.37796451    -0.30840
H1869       H  0.90125272  0.94692497  0.40881402     0.13360
H1870       H  0.96442567  0.99441811  0.35640674     0.13930
C1871       C  0.91959065  0.71488058  0.37384396    -0.15670
C1872       C  0.93584871  0.70206874  0.39811451    -0.30840
H1873       H  0.90470107  0.69898665  0.34612177     0.13360
H1874       H  0.95458327  0.71970727  0.42311225     0.13930
C1875       C  0.53969417  0.96216845  0.37302235    -0.15670
C1876       C  0.57417736  0.96811746  0.37500831    -0.30840
H1877       H  0.53543191  0.98566251  0.37551764     0.13360
H1878       H  0.57829167  0.94451293  0.37338682     0.13930
C1879       C  0.81810209  0.72342712  0.35947353    -0.15670
C1880       C  0.79729309  0.70285238  0.38824413    -0.30840
H1881       H  0.80804885  0.71558997  0.32823348     0.13360
H1882       H  0.80689241  0.71176528  0.41948907     0.13930
C1883       C  0.85567077  0.84833973  0.47246485    -0.15670
C1884       C  0.85067012  0.83630560  0.01241648    -0.30840
H1885       H  0.83382844  0.85384546  0.46459737     0.13360
H1886       H  0.86176503  0.81881227  0.01997945     0.13930
C1887       C  0.85882358  0.84949447  0.26162344    -0.15670
C1888       C  0.87986590  0.85574070  0.23049017    -0.30840
H1889       H  0.83261612  0.84837382  0.25787485     0.13360
H1890       H  0.90669443  0.85835553  0.23451901     0.13930
O1891       O  0.93973816  0.92887558  0.83382000    -0.79370
O1892       O  0.96509331  0.84556405  0.94737870    -0.79390
O1893       O  0.85394490  0.82733712  0.90654635    -0.79400
O1894       O  0.01161763  0.88455963  0.85850896    -0.79340
O1895       O  0.90089719  0.84509797  0.94895155    -0.79470
O1896       O  0.98525945  0.91517640  0.88243194    -0.79390
O1897       O  0.99082437  0.82577026  0.90447669    -0.79370
O1898       O  0.90011678  0.89283661  0.87633002    -0.79410
C1899       C  0.91596473  0.92365458  0.85887875     1.10320
C1900       C  0.99053920  0.83957603  0.93889595     1.10200
C1901       C  0.86857046  0.83819631  0.94187117     1.10340
C1902       C  0.50973006  0.92273831  0.87165143     1.10220
O1903       O  0.97249405  0.89209381  0.80176796    -0.79370
O1904       O  0.86261921  0.77185415  0.90461449    -0.79450
O1905       O  0.84424939  0.83886695  0.82858521    -0.79380
O1906       O  0.93496766  0.77722898  0.84363264    -0.79360
O1907       O  0.92638388  0.77142742  0.90813723    -0.79420
O1908       O  0.89690316  0.85891972  0.79987277    -0.79380
O1909       O  0.95837044  0.83442817  0.79423169    -0.79340
O1910       O  0.86032469  0.78401336  0.84154491    -0.79410
Co1911     Co  0.93957602  0.88495784  0.84625746     1.51530
Co1912     Co  0.91504830  0.81113518  0.92427480     1.51690
Co1913     Co  0.88316581  0.83774413  0.85720428     1.51570
Co1914     Co  0.97061516  0.83061530  0.85090361     1.51470
O1915       O  0.93011081  0.83867306  0.87274708    -1.41310
C1916       C  0.97316476  0.86638426  0.78133966     1.10250
C1917       C  0.84761484  0.76175642  0.86903822     1.10340
C1918       C  0.86239319  0.84945234  0.79777265     1.10270
C1919       C  0.92733223  0.75818640  0.87369298     1.10250
O1920       O  0.94141496  0.63250810  0.78671391    -0.79370
O1921       O  0.94269178  0.54537736  0.87943186    -0.79390
O1922       O  0.49329409  0.59309149  0.88234069    -0.79400
O1923       O  0.85832867  0.53182211  0.82782342    -0.79340
O1924       O  0.98677051  0.57522443  0.94835261    -0.79470
O1925       O  0.91437784  0.56270031  0.81073771    -0.79390
O1926       O  0.88466950  0.50985261  0.89049060    -0.79370
O1927       O  0.97876034  0.61902399  0.82078532    -0.79410
C1928       C  0.97069527  0.63056449  0.78930969     1.10320
C1929       C  0.91455620  0.51380414  0.87855410     1.10200
C1930       C  0.50046434  0.59098740  0.91832485     1.10340
C1931       C  0.88163361  0.53742327  0.80238513     1.10220
O1932       O  0.86807845  0.59643599  0.82103211    -0.79370
O1933       O  0.95628255  0.61686897  0.96813408    -0.79450
O1934       O  0.97942978  0.67982535  0.86820572    -0.79380
O1935       O  0.86973548  0.55643218  0.94570091    -0.79360
O1936       O  0.91347645  0.54430642  0.95681058    -0.79420
O1937       O  0.92116184  0.65394262  0.85657590    -0.79380
O1938       O  0.84929030  0.58123944  0.88148081    -0.79340
O1939       O  0.99724513  0.65961679  0.93449562    -0.79410
Co1940     Co  0.92082424  0.60982146  0.83541854     1.51530
Co1941     Co  0.94992333  0.58203667  0.92282693     1.51690
Co1942     Co  0.98188773  0.63447724  0.87976675     1.51570
Co1943     Co  0.86949150  0.54845575  0.88702801     1.51470
O1944       O  0.92201596  0.59642532  0.88957153    -1.41310
C1945       C  0.84538315  0.59162712  0.84767590     1.10250
C1946       C  0.98322233  0.64909752  0.96722333     1.10340
C1947       C  0.95131463  0.68260801  0.86468705     1.10270
C1948       C  0.88477273  0.54370786  0.96765724     1.10250
O1949       O  0.52319180  0.90532545  0.59935403    -0.79370
O1950       O  0.68131471  0.00535105  0.59154080    -0.79390
O1951       O  0.58079965  0.98156647  0.60037036    -0.79400
O1952       O  0.57765931  0.90657371  0.53354716    -0.79340
O1953       O  0.63368596  0.01802621  0.63412274    -0.79470
O1954       O  0.54304066  0.85851491  0.56659136    -0.79390
O1955       O  0.63976771  0.97086056  0.54304906    -0.79370
O1956       O  0.52647648  0.94313999  0.64908472    -0.79410
C1957       C  0.50916656  0.92233039  0.61821374     1.10320
C1958       C  0.66829347  0.00056813  0.55587342     1.10200
C1959       C  0.59739180  0.51011242  0.61287107     1.10340
C1960       C  0.55019896  0.87462563  0.53413875     1.10220
O1961       O  0.58720327  0.86348075  0.63589079    -0.79370
O1962       O  0.63656872  0.96729918  0.69378062    -0.79450
O1963       O  0.55382065  0.90352588  0.67980974    -0.79380
O1964       O  0.67654082  0.93794362  0.58354872    -0.79360
O1965       O  0.68064625  0.95613034  0.64744193    -0.79420
O1966       O  0.51728686  0.85036784  0.64483494    -0.79380
O1967       O  0.61162926  0.87058328  0.57707027    -0.79340
O1968       O  0.59272118  0.97882827  0.68536767    -0.79410
Co1969     Co  0.55948729  0.88809921  0.62032922     1.51530
Co1970     Co  0.65449868  0.98307863  0.64054325     1.51690
Co1971     Co  0.56925006  0.94241522  0.63724219     1.51570
Co1972     Co  0.62492350  0.92221052  0.56239117     1.51470
O1973       O  0.60884748  0.93584152  0.61366410    -1.41310
C1974       C  0.60147263  0.85341036  0.60898000     1.10250
C1975       C  0.61716868  0.97902740  0.70816079     1.10340
C1976       C  0.52599222  0.87000812  0.67783964     1.10270
C1977       C  0.69318272  0.94711949  0.61824026     1.10250
O1978       O  0.68711596  0.66828349  0.85328376    -0.79370
O1979       O  0.62828786  0.50742200  0.89132636    -0.79390
O1980       O  0.66378699  0.55651589  0.80412599    -0.79400
O1981       O  0.59605856  0.58058432  0.93515505    -0.79340
O1982       O  0.68278949  0.52567311  0.83898263    -0.79470
O1983       O  0.62389635  0.61976577  0.88911902    -0.79390
O1984       O  0.60415831  0.54105388  0.87271313    -0.79370
O1985       O  0.66462129  0.61977140  0.81160409    -0.79410
C1986       C  0.67128207  0.65227585  0.81951290     1.10320
C1987       C  0.60077773  0.50961298  0.87747872     1.10200
C1988       C  0.66627242  0.52820354  0.80809862     1.10340
C1989       C  0.59572783  0.60208821  0.91044231     1.10220
O1990       O  0.68161013  0.67477000  0.93532733    -0.79370
O1991       O  0.73724896  0.57923313  0.89806674    -0.79450
O1992       O  0.74187354  0.65774150  0.84566156    -0.79380
O1993       O  0.63016393  0.54602960  0.95156829    -0.79360
O1994       O  0.68643988  0.55840651  0.95397011    -0.79420
O1995       O  0.73413982  0.65953789  0.91036416    -0.79380
O1996       O  0.66845799  0.62120278  0.95915923    -0.79340
O1997       O  0.74066963  0.59207262  0.83453103    -0.79410
Co1998     Co  0.68023118  0.63703067  0.90052619     1.51530
Co1999     Co  0.68380758  0.54586928  0.89530880     1.51630
Co2000     Co  0.70094036  0.60551491  0.82668360     1.51570
Co2001     Co  0.63712209  0.58214194  0.91219182     1.51470
O2002       O  0.67891830  0.59011038  0.88010609    -1.41310
C2003       C  0.67635764  0.65515227  0.96496374     1.10250
C2004       C  0.75520042  0.58923301  0.86714953     1.10340
C2005       C  0.75451177  0.67183047  0.88128136     1.10270
C2006       C  0.65645007  0.54637783  0.97027393     1.10250
O2007       O  0.52553237  0.58890805  0.66668214    -0.79370
O2008       O  0.60678818  0.66610604  0.55870670    -0.79390
O2009       O  0.54637473  0.66785882  0.55437216    -0.79400
O2010       O  0.63694352  0.63651828  0.64572969    -0.79340
O2011       O  0.59274330  0.72073165  0.53675694    -0.79470
O2012       O  0.58150429  0.60754728  0.61661039    -0.79390
O2013       O  0.66076095  0.68561857  0.58950342    -0.79370
O2014       O  0.51646323  0.61158254  0.61145060    -0.79410
C2015       C  0.50409783  0.58718129  0.63810612     1.10320
C2016       C  0.63769008  0.66828766  0.55972154     1.10200
C2017       C  0.55973489  0.69393262  0.53014840     1.10340
C2018       C  0.61139018  0.60843000  0.62585547     1.10220
O2019       O  0.59689871  0.63112772  0.70112043    -0.79370
O2020       O  0.60727948  0.75192367  0.61364734    -0.79450
O2021       O  0.51956867  0.66947002  0.66516038    -0.79380
O2022       O  0.66981007  0.74298951  0.65038713    -0.79360
O2023       O  0.65841818  0.74295178  0.58610268    -0.79420
O2024       O  0.55446207  0.65720216  0.70144196    -0.79380
O2025       O  0.64324960  0.68897136  0.70727303    -0.79340
O2026       O  0.54861794  0.72119171  0.61564868    -0.79410
Co2027     Co  0.56685044  0.63463785  0.65634974     1.51530
Co2028     Co  0.60414936  0.70718642  0.58702072     1.51690
Co2029     Co  0.54041698  0.66920736  0.61432207     1.51570
Co2030     Co  0.64895471  0.68895899  0.64776901     1.51470
O2031       O  0.59722569  0.68345898  0.63711578    -1.41310
C2032       C  0.62394875  0.65764127  0.72188567     1.10250
C2033       C  0.57818881  0.75203961  0.61830090     1.10340
C2034       C  0.52985556  0.66529625  0.69848551     1.10270
C2035       C  0.67942000  0.75799576  0.61778804     1.10250
O2036       O  0.90916433  0.92819977  0.67094303    -0.79370
O2037       O  0.80998122  0.92723974  0.53661794    -0.79390
O2038       O  0.84967735  0.84491059  0.57646273    -0.79400
O2039       O  0.91136035  0.00303893  0.61822209    -0.79340
O2040       O  0.84610265  0.88749871  0.54349738    -0.79470
O2041       O  0.90882065  0.99101191  0.68183562    -0.79390
O2042       O  0.86453954  0.97437921  0.55228120    -0.79370
O2043       O  0.90299080  0.91464273  0.60517821    -0.79410
C2044       C  0.92233638  0.92572027  0.63808906     1.10320
C2045       C  0.83779322  0.95646658  0.52686731     1.10200
C2046       C  0.85250968  0.86045673  0.54435216     1.10340
C2047       C  0.92669535  0.00948208  0.65303898     1.10220
O2048       O  0.82977747  0.94820633  0.69607152    -0.79370
O2049       O  0.77303571  0.85523550  0.55033075    -0.79450
O2050       O  0.85676144  0.86163955  0.65486180    -0.79380
O2051       O  0.80329852  0.96374566  0.60092029    -0.79360
O2052       O  0.77670471  0.90366495  0.60983823    -0.79420
O2053       O  0.83211276  0.88498946  0.69189772    -0.79380
O2054       O  0.85471214  0.99972136  0.66565576    -0.79340
O2055       O  0.79240617  0.84710979  0.60894100    -0.79410
Co2056     Co  0.86788879  0.93712396  0.68208759     1.51530
Co2057     Co  0.81234330  0.89681920  0.58018037     1.51690
Co2058     Co  0.84901873  0.88388486  0.60622681     1.51570
Co2059     Co  0.85789666  0.98180405  0.60952871     1.51470
O2060       O  0.85040466  0.93135075  0.62348160    -1.41310
C2061       C  0.84001803  0.98194422  0.69600269     1.10250
C2062       C  0.76716724  0.83586947  0.57994748     1.10340
C2063       C  0.84516365  0.86401571  0.68828111     1.10270
C2064       C  0.77481008  0.93251336  0.60664774     1.10250
C2065       C  0.97402092  0.56244773  0.63557567    -0.15670
C2066       C  0.95628188  0.54015253  0.66448475    -0.30840
H2067       H  0.95995338  0.56053813  0.60698147     0.13360
H2068       H  0.97003546  0.54316393  0.69365328     0.13930
C2069       C  0.71622604  0.79075997  0.61659492    -0.15670
C2070       C  0.73063636  0.80314596  0.58180487    -0.30840
H2071       H  0.73229486  0.80404632  0.64468206     0.13360
H2072       H  0.71428967  0.79038153  0.55375834     0.13930
C2073       C  0.63323565  0.64816841  0.76099077    -0.15670
C2074       C  0.66101308  0.67028694  0.78828524    -0.30840
H2075       H  0.61679259  0.61883116  0.76616382     0.13360
H2076       H  0.67733767  0.70005693  0.78587599     0.13930
C2077       C  0.64667538  0.65130979  0.52553329    -0.15670
C2078       C  0.67679867  0.66952335  0.00575259    -0.30840
H2079       H  0.62763808  0.62208140  0.51706769     0.13360
H2080       H  0.68228699  0.65707389  0.03081176     0.13930
C2081       C  0.68587157  0.02963361  0.52797981    -0.15670
C2082       C  0.64921209  0.52888401  0.00829267    -0.30840
H2083       H  0.70957696  0.03250918  0.51319924     0.13360
H2084       H  0.62064844  0.51500042  0.01604164     0.13930
C2085       C  0.65172096  0.49979068  0.77441856    -0.15670
C2086       C  0.62527288  0.49783602  0.74931311    -0.30840
H2087       H  0.66498347  0.48388474  0.76788868     0.13360
H2088       H  0.61270141  0.01272910  0.75690012     0.13930
C2089       C  0.59172394  0.54197759  0.60690592    -0.15670
C2090       C  0.61778628  0.57695864  0.61836335    -0.30840
H2091       H  0.56428032  0.53599495  0.59751126     0.13360
H2092       H  0.64493805  0.58221904  0.62802658     0.13930
C2093       C  0.60513188  0.82005766  0.61259064    -0.15670
C2094       C  0.57788245  0.78746734  0.62438511    -0.30840
H2095       H  0.62845230  0.82059672  0.59923333     0.13360
H2096       H  0.55291828  0.78589548  0.63419852     0.13930
C2097       C  0.72966964  0.95078165  0.62412441    -0.15670
C2098       C  0.73785031  0.92783989  0.60426919    -0.30840
H2099       H  0.75013784  0.97269317  0.64512930     0.13360
H2100       H  0.71631158  0.90397556  0.58613823     0.13930
C2101       C  0.96029756  0.93416532  0.64015352    -0.15670
C2102       C  0.97091929  0.91268868  0.62091371    -0.30840
H2103       H  0.97865682  0.95548875  0.66300044     0.13360
H2104       H  0.95197144  0.88984564  0.59980759     0.13930
C2105       C  0.49205059  0.67224685  0.99393732    -0.15670
C2106       C  0.53790575  0.68941658  0.49281259    -0.30840
H2107       H  0.47505217  0.66141118  0.01915042     0.13360
H2108       H  0.55282781  0.69993971  0.46619414     0.13930
C2109       C  0.99446455  0.63731189  0.75603742    -0.15670
C2110       C  0.50925140  0.66434168  0.73257361    -0.30840
H2111       H  0.00976609  0.62285971  0.75484311     0.13360
H2112       H  0.50496620  0.68722696  0.74062239     0.13930
C2113       C  0.83965726  0.97010865  0.48619867    -0.15670
C2114       C  0.86668459  0.52462538  0.00324278    -0.30840
H2115       H  0.83049642  0.95063110  0.46000548     0.13360
H2116       H  0.84155245  0.52361595  0.01145759     0.13930
C2117       C  0.84416233  0.00192772  0.73468882    -0.15670
C2118       C  0.87109311  0.51906711  0.76131855    -0.30840
H2119       H  0.82112225  0.99157486  0.75367291     0.13360
H2120       H  0.89289524  0.53048910  0.74074990     0.13930
C2121       C  0.56237156  0.60445104  0.90396754    -0.15670
C2122       C  0.53461024  0.59095297  0.92908092    -0.30840
H2123       H  0.56032766  0.61718481  0.87721486     0.13360
H2124       H  0.53710202  0.58007416  0.95706676     0.13930
C2125       C  0.79257711  0.59472284  0.87038935    -0.15670
C2126       C  0.81293061  0.59590474  0.83969779    -0.30840
H2127       H  0.80233852  0.59406899  0.90059998     0.13360
H2128       H  0.80420036  0.59684607  0.80915512     0.13930
C2129       C  0.52803637  0.85755308  0.49599275    -0.15670
C2130       C  0.01826319  0.84577053  0.97056893    -0.30840
H2131       H  0.54255086  0.85713761  0.47000810     0.13360
H2132       H  0.02542018  0.82454642  0.97453487     0.13930
C2133       C  0.50486870  0.85561715  0.71387160    -0.15670
C2134       C  0.99403377  0.87553796  0.74473470    -0.30840
H2135       H  0.49199581  0.82631197  0.71886463     0.13360
H2136       H  0.00527873  0.90372341  0.73581475     0.13930
C2137       C  0.90653819  0.95247603  0.86926726    -0.15670
C2138       C  0.92043430  0.98409011  0.85061847    -0.30840
H2139       H  0.88794562  0.94766916  0.89289278     0.13360
H2140       H  0.94021793  0.98949627  0.82819709     0.13930
C2141       C  0.92363751  0.72166024  0.86965449    -0.15670
C2142       C  0.95387898  0.71887041  0.86867223    -0.30840
H2143       H  0.89630821  0.69718819  0.86893214     0.13360
H2144       H  0.98100067  0.74379018  0.87110966     0.13930
C2145       C  0.54174179  0.96110368  0.87860963    -0.15670
C2146       C  0.57490274  0.96960455  0.86564413    -0.30840
H2147       H  0.53826954  0.98234034  0.89417039     0.13360
H2148       H  0.57856932  0.94784299  0.85179645     0.13930
C2149       C  0.81302375  0.72526235  0.86014239    -0.15670
C2150       C  0.79228158  0.70468441  0.88921514    -0.30840
H2151       H  0.80266942  0.71690242  0.82904604     0.13360
H2152       H  0.80200310  0.71401746  0.92034551     0.13930
C2153       C  0.84901895  0.84476273  0.97405751    -0.15670
C2154       C  0.86688685  0.84988205  0.51069942    -0.30840
H2155       H  0.83569595  0.86034430  0.96674897     0.13360
H2156       H  0.88649043  0.84115871  0.51809761     0.13930
C2157       C  0.84422958  0.85225715  0.76043935    -0.15670
C2158       C  0.85547034  0.85036279  0.72379751    -0.30840
H2159       H  0.82243179  0.85855864  0.76361296     0.13360
H2160       H  0.87613183  0.84245265  0.72050587     0.13930
loop_ 
_geom_bond_atom_site_label_1 
_geom_bond_atom_site_label_2 
_geom_bond_distance 
_geom_bond_site_symmetry_2 
_ccdc_geom_bond_type 
O1            C9   1.272       .  A
O1          Co21   1.907       .  S
O2           C10   1.260       .  A
O2          Co22   1.947       .  S
O3           C11   1.314       .  A
O3          Co23   2.138       .  S
O4         C1092   1.258       .  A
O4          Co24   2.015       .  S
O5           C11   1.273       .  A
O5          Co22   1.869       .  S
O6         C1092   1.256       .  A
O6          Co21   2.013       .  S
O7           C10   1.270       .  A
O7          Co24   2.006       .  S
O8            C9   1.296       .  A
O8          Co23   2.079       .  S
C9          C247   1.470       .  S
C10         C240   1.445       .  S
C11         C263   1.487       .  S
C12        O1084   1.257       .  A
C12        O1086   1.246   1_455  A
C12         C255   1.489       .  S
O13          C26   1.278       .  A
O13         Co21   2.012       .  S
O14          C27   1.256       .  A
O14         Co22   1.995       .  S
O15          C28   1.280       .  A
O15         Co23   1.945       .  S
O16          C29   1.268       .  A
O16         Co24   1.957       .  S
O17          C29   1.275       .  A
O17         Co22   2.008       .  S
O18          C28   1.289       .  A
O18         Co21   2.045       .  S
O19          C26   1.273       .  A
O19         Co24   1.985       .  S
O20          C27   1.260       .  A
O20         Co23   2.008       .  S
Co21         O25   1.955       .  S
Co22         O25   1.920       .  S
Co23         O25   2.081       .  S
Co24         O25   2.061       .  S
C26         C244   1.478       .  S
C27         C259   1.494       .  S
C28         C267   1.486       .  S
C29         C251   1.459       .  S
O30          C38   1.258       .  A
O30         Co50   2.013       .  S
O31          C39   1.260       .  A
O31         Co51   2.055       .  S
O32          C40   1.262       .  A
O32       Co1132   1.951   1_455  S
O33          C41   1.263       .  A
O33         Co53   2.006       .  S
O34        C1120   1.261       .  A
O34         Co51   2.010       .  S
O35          C41   1.251       .  A
O35         Co50   1.941       .  S
O36          C39   1.246       .  A
O36         Co53   1.941       .  S
O37          C38   1.249       .  A
O37         Co52   1.963       .  S
C38         C219   1.458       .  S
C39         C788   1.468   1_545  S
C40        O1114   1.262   1_455  A
C40         C232   1.438       .  S
C41         C228   1.461       .  S
O42          C55   1.252       .  A
O42         Co50   1.962       .  S
O43          C56   1.264       .  A
O43         Co51   1.967       .  S
O44          C57   1.273       .  A
O44         Co52   2.039       .  S
O45          C58   1.293       .  A
O45         Co53   2.096       .  S
O46          C58   1.255       .  A
O46         Co51   1.875       .  S
O47          C57   1.252       .  A
O47         Co50   1.930       .  S
O48          C55   1.247       .  A
O48         Co53   1.968       .  S
O49          C56   1.268       .  A
O49         Co52   2.005       .  S
Co50         O54   2.097       .  S
Co51         O54   1.993       .  S
Co52       O1112   1.949       .  S
Co52         O54   2.087       .  S
Co53         O54   2.153       .  S
C55         C236   1.465       .  S
C56        C1295   1.476       .  S
C57         C252   1.462       .  S
C58         C224   1.451       .  S
O59          C67   1.250       .  A
O59         Co79   1.996       .  S
O60          C68   1.261       .  A
O60         Co80   1.950       .  S
O61         C609   1.269       .  A
O61         Co81   2.018       .  S
O62          C70   1.242       .  A
O62         Co82   1.959       .  S
O63         C609   1.257       .  A
O63         Co80   1.968       .  S
O64          C70   1.252       .  A
O64         Co79   1.990       .  S
O65          C68   1.267       .  A
O65         Co82   2.010       .  S
O66          C67   1.249       .  A
O66         Co81   1.966       .  S
C67        C1292   1.473   1_455  S
C68         C191   1.464       .  S
C69         O601   1.253   1_545  A
C69         O603   1.241   1_545  A
C69         C199   1.475       .  S
C70         C239   1.454   1_554  S
O71          C84   1.295       .  A
O71         Co79   2.063       .  S
O72          C85   1.268       .  A
O72         Co80   2.028       .  S
O73          C86   1.269       .  A
O73         Co81   1.856       .  S
O74          C87   1.251       .  A
O74         Co82   1.976       .  S
O75          C87   1.261       .  A
O75         Co80   1.998       .  S
O76          C86   1.296       .  A
O76         Co79   2.070       .  S
O77          C84   1.272       .  A
O77         Co82   1.901       .  S
O78          C85   1.253       .  A
O78         Co81   1.990       .  S
Co79         O83   2.266       .  S
Co80         O83   2.092       .  S
Co81         O83   1.895       .  S
Co82         O83   1.917       .  S
C84         C203   1.467       .  S
C85         C736   1.490       .  S
C86         C243   1.455       .  S
C87         C207   1.454       .  S
O88          C96   1.262       .  A
O88        Co108   2.018       .  S
O89          C97   1.278       .  A
O89        Co109   2.044       .  S
O90          C98   1.258       .  A
O90        Co110   1.964       .  S
O91          C99   1.262       .  A
O91        Co111   1.857       .  S
O92          C98   1.274       .  A
O92        Co109   2.043       .  S
O93          C99   1.288       .  A
O93        Co108   2.100       .  S
O94          C97   1.268       .  A
O94        Co111   1.982       .  S
O95          C96   1.258       .  A
O95        Co110   1.967       .  S
C96         C184   1.475       .  S
C97         C796   1.490   1_545  S
C98         C195   1.479       .  S
C99         C231   1.446       .  S
O100        C113   1.270       .  A
O100       Co108   1.928       .  S
O101        C114   1.264       .  A
O101       Co109   1.959       .  S
O102        C115   1.281       .  A
O102       Co110   2.045       .  S
O103        C116   1.255       .  A
O103       Co111   1.973       .  S
O104        C116   1.263       .  A
O104       Co109   1.997       .  S
O105        C115   1.275       .  A
O105       Co108   1.983       .  S
O106        C113   1.296       .  A
O106       Co111   2.104       .  S
O107        C114   1.272       .  A
O107       Co110   2.000       .  S
Co108       O112   2.026       .  S
Co109       O112   2.069       .  S
Co110       O112   2.009       .  S
Co111       O112   1.973       .  S
C113        C188   1.487       .  S
C114        C235   1.458       .  S
C115        C260   1.494       .  S
C116        C192   1.466       .  S
O117        C125   1.262       .  A
O117       Co137   1.872       .  S
O118        C126   1.255       .  A
O118       Co138   1.954       .  S
O119        C127   1.268       .  A
O119       Co139   2.019       .  S
O120        C128   1.276       .  A
O120       Co140   2.022       .  S
O121        C127   1.263       .  A
O121       Co138   1.981       .  S
O122        C128   1.266       .  A
O122       Co137   1.965       .  S
O123        C126   1.275       .  A
O123       Co140   2.050       .  S
O124        C125   1.283       .  A
O124       Co139   2.078       .  S
C125       C1255   1.440   1_455  S
C126        C187   1.485       .  S
C127        C216   1.483   1_455  S
C128        C200   1.461       .  S
O129        C142   1.254       .  A
O129       Co137   1.975       .  S
O130        C143   1.273       .  A
O130       Co138   1.994       .  S
O131        C144   1.272       .  A
O131       Co139   1.938       .  S
O132        C145   1.256       .  A
O132       Co140   1.944       .  S
O133        C145   1.281       .  A
O133       Co138   2.041       .  S
O134        C144   1.293       .  A
O134       Co137   2.089       .  S
O135        C142   1.259       .  A
O135       Co140   1.996       .  S
O136        C143   1.270       .  A
O136       Co139   1.975       .  S
Co137       O141   1.989       .  S
Co138       O141   2.023       .  S
Co139       O141   2.033       .  S
Co140       O141   2.057       .  S
C142        C183   1.468       .  S
C143        C204   1.471       .  S
C144        C220   1.488       .  S
C145        C179   1.473       .  S
O146        C154   1.256       .  A
O146       Co166   1.870       .  S
O147        C155   1.248       .  A
O147       Co167   1.925       .  S
O148        C156   1.267       .  A
O148       Co168   2.017       .  S
O149        C157   1.275       .  A
O149       Co169   2.017       .  S
O150        C156   1.254       .  A
O150       Co167   1.956       .  S
O151        C157   1.268       .  A
O151       Co166   1.974       .  S
O152        C155   1.270       .  A
O152       Co169   2.033       .  S
O153        C154   1.293       .  A
O153       Co168   2.114       .  S
C154        C211   1.450       .  S
C155        C223   1.465       .  S
C156        C264   1.472       .  S
C157        C716   1.466       .  S
O158        C171   1.250       .  A
O158       Co166   1.975       .  S
O159        C172   1.268       .  A
O159       Co167   1.992       .  S
O160        C173   1.271       .  A
O160       Co168   1.912       .  S
O161        C174   1.256       .  A
O161       Co169   1.933       .  S
O162        C174   1.278       .  A
O162       Co167   2.035       .  S
O163        C173   1.295       .  A
O163       Co166   2.097       .  S
O164        C171   1.254       .  A
O164       Co169   1.976       .  S
O165        C172   1.275       .  A
O165       Co168   1.989       .  S
Co166       O170   1.992       .  S
Co167       O170   2.019       .  S
Co168       O170   2.020       .  S
Co169       O170   2.052       .  S
C171        C227   1.462       .  S
C172        C180   1.472       .  S
C173        C268   1.485       .  S
C174        C208   1.466       .  S
C175       C1205   1.488       .  S
C175        C176   1.352       .  D
C175        H177   1.087       .  S
C176        C697   1.489       .  S
C176        H178   1.087       .  S
C179        C180   1.332       .  D
C179        H181   1.088       .  S
C180        H182   1.088       .  S
C183        C184   1.342       .  D
C183        H185   1.088       .  S
C184        H186   1.085       .  S
C187        C458   1.352   1_554  D
C187        H189   1.086       .  S
C188        C457   1.360       .  D
C188        H190   1.087       .  S
C191       C1002   1.343   1_554  D
C191        H193   1.086   1_554  S
C192       C1001   1.338       .  D
C192        H194   1.088       .  S
C195        C196   1.349   1_545  D
C195        H197   1.086       .  S
C196        C625   1.492       .  S
C196        H738   1.086       .  S
H198        C736   1.087       .  S
C199        C200   1.351       .  D
C199        H201   1.087       .  S
C200        H202   1.086       .  S
C203        C204   1.349       .  D
C203        H205   1.087       .  S
C204        H206   1.087       .  S
C207        C208   1.348       .  D
C207        H209   1.086       .  S
C208        H210   1.087       .  S
C211        C212   1.335       .  D
C211        H213   1.088       .  S
C212       C1147   1.469       .  S
C212        H214   1.086       .  S
C215       C1136   1.483   1_455  S
C215        C486   1.341   1_455  D
C215        H217   1.086       .  S
C216        C485   1.344   1_654  D
C216        H218   1.086       .  S
C219       C1300   1.340       .  D
C219        H221   1.087       .  S
C220       C1299   1.358   1_455  D
C220        H222   1.087       .  S
C223       C1034   1.350   1_554  D
C223        H225   1.086       .  S
C224       C1033   1.336   1_545  D
C224        H226   1.087       .  S
C227        C768   1.337       .  D
C227        H229   1.088       .  S
C228        C767   1.344   1_545  D
C228        H230   1.087       .  S
C231        C232   1.330       .  D
C231        H233   1.088       .  S
C232        H234   1.088       .  S
C235        C236   1.343       .  D
C235        H237   1.087       .  S
C236        H238   1.086       .  S
C239       C1590   1.337       .  D
C239        H241   1.087       .  S
C240       C1589   1.353       .  D
C240        H242   1.086       .  S
C243       C1324   1.336   1_455  D
C243        H245   1.086       .  S
C244       C1323   1.347       .  D
C244        H246   1.088       .  S
C247        C248   1.341       .  D
C247        H249   1.087       .  S
C248        C579   1.467       .  S
C248        H250   1.087       .  S
C251        C252   1.346       .  D
C251        H253   1.087       .  S
C252        H254   1.086       .  S
C255        C256   1.352       .  D
C255        H257   1.087       .  S
C256        C637   1.489       .  S
C256        H258   1.086       .  S
C259        C260   1.358       .  D
C259        H261   1.085       .  S
C260        H262   1.086       .  S
C263        C534   1.344       .  D
C263        H265   1.087       .  S
C264        C533   1.350   1_554  D
C264        H266   1.086       .  S
C267        C268   1.350       .  D
C267        H269   1.086       .  S
C268        H270   1.087       .  S
O271        C279   1.274       .  A
O271       Co291   1.918       .  S
O272        C280   1.262       .  A
O272       Co292   1.942       .  S
O273        C281   1.264       .  A
O273       Co293   2.015       .  S
O274       C1362   1.278       .  A
O274       Co294   2.035       .  S
O275        C281   1.252       .  A
O275       Co292   1.956       .  S
O276       C1362   1.273       .  A
O276       Co291   1.980       .  S
O277        C280   1.276       .  A
O277       Co294   2.025       .  S
O278        C279   1.294       .  A
O278       Co293   2.099       .  S
C279        C517   1.484       .  S
C280        C510   1.463       .  S
C281        C533   1.470       .  S
C282       O1354   1.276       .  A
C282       O1356   1.273   1_455  A
C282        C525   1.469       .  S
O283        C296   1.268       .  A
O283       Co291   2.014       .  S
O284        C297   1.281       .  A
O284       Co292   2.037       .  S
O285        C298   1.264       .  A
O285       Co293   1.906       .  S
O286        C299   1.253       .  A
O286       Co294   1.951       .  S
O287        C299   1.261       .  A
O287       Co292   1.995       .  S
O288        C298   1.288       .  A
O288       Co291   2.098       .  S
O289        C296   1.252       .  A
O289       Co294   1.972       .  S
O290        C297   1.268       .  A
O290       Co293   1.974       .  S
Co291       O295   2.026       .  S
Co292       O295   2.051       .  S
Co293       O295   1.996       .  S
Co294       O295   2.016       .  S
C296        C514   1.466       .  S
C297        C529   1.485       .  S
C298        C537   1.477       .  S
C299        C521   1.447       .  S
O300        C308   1.268       .  A
O300       Co320   1.904       .  S
O301        C309   1.247       .  A
O301       Co321   1.993       .  S
O302        C310   1.299       .  A
O302      Co1402   2.061   1_455  S
O303        C311   1.261       .  A
O303       Co323   1.997       .  S
O304       C1390   1.258       .  A
O304       Co321   1.845       .  S
O305        C311   1.252       .  A
O305       Co320   1.962       .  S
O306        C309   1.268       .  A
O306       Co323   2.046       .  S
O307        C308   1.292       .  A
O307       Co322   2.050       .  S
C308        C489   1.465       .  S
C309       C1058   1.479   1_545  S
C310       O1384   1.265   1_455  A
C310        C502   1.431       .  S
C311        C498   1.444       .  S
O312        C325   1.264       .  A
O312       Co320   1.996       .  S
O313        C326   1.251       .  A
O313       Co321   1.970       .  S
O314        C327   1.253       .  A
O314       Co322   1.994       .  S
O315        C328   1.255       .  A
O315       Co323   1.972       .  S
O316        C328   1.263       .  A
O316       Co321   1.995       .  S
O317        C327   1.242       .  A
O317       Co320   1.939       .  S
O318        C325   1.264       .  A
O318       Co323   1.955       .  S
O319        C326   1.245       .  A
O319       Co322   1.969       .  S
Co320       O324   1.912       .  S
Co321       O324   1.880       .  S
Co322      O1382   2.068       .  S
Co322       O324   2.251       .  S
Co323       O324   2.098       .  S
C325        C506   1.458       .  S
C326       C1565   1.463       .  S
C327        C522   1.454       .  S
C328        C494   1.464   1_556  S
O329        C337   1.297       .  A
O329       Co349   2.133       .  S
O330        C338   1.270       .  A
O330       Co350   2.032       .  S
O331        C879   1.264       .  A
O331       Co351   1.979       .  S
O332        C340   1.251       .  A
O332       Co352   1.947       .  S
O333        C879   1.274       .  A
O333       Co350   2.021       .  S
O334        C340   1.259       .  A
O334       Co349   2.003       .  S
O335        C338   1.246       .  A
O335       Co352   1.933       .  S
O336        C337   1.267       .  A
O336       Co351   1.875       .  S
C337       C1562   1.479   1_455  S
C338        C461   1.465       .  S
C339        O871   1.264   1_545  A
C339        O873   1.277       .  A
C339        C469   1.472       .  S
C340        C509   1.461   1_455  S
O341        C354   1.278       .  A
O341       Co349   1.993       .  S
O342        C355   1.259       .  A
O342       Co350   1.963       .  S
O343        C356   1.301       .  A
O343       Co351   2.120       .  S
O344        C357   1.277       .  A
O344       Co352   2.052       .  S
O345        C357   1.259       .  A
O345       Co350   1.952       .  S
O346        C356   1.267       .  A
O346       Co349   1.899       .  S
O347        C354   1.274       .  A
O347       Co352   2.003       .  S
O348        C355   1.268       .  A
O348       Co351   2.009       .  S
Co349       O353   2.030       .  S
Co350       O353   2.066       .  S
Co351       O353   2.003       .  S
Co352       O353   2.024       .  S
C354        C473   1.479       .  S
C355       C1006   1.467       .  S
C356        C513   1.490       .  S
C357        C477   1.485       .  S
O358        C366   1.268       .  A
O358       Co378   2.027       .  S
O359        C367   1.285       .  A
O359       Co379   2.072       .  S
O360        C368   1.265       .  A
O360       Co380   1.965       .  S
O361        C369   1.263       .  A
O361       Co381   1.856       .  S
O362        C368   1.266       .  A
O362       Co379   2.010       .  S
O363        C369   1.287       .  A
O363       Co378   2.082       .  S
O364        C367   1.269       .  A
O364       Co381   1.984       .  S
O365        C366   1.258       .  A
O365       Co380   1.967       .  S
C366        C454   1.484       .  S
C367       C1066   1.504   1_545  S
C368        C465   1.468   1_545  S
C369        C501   1.446       .  S
O370        C383   1.268       .  A
O370       Co378   1.916       .  S
O371        C384   1.255       .  A
O371       Co379   1.942       .  S
O372        C385   1.282       .  A
O372       Co380   2.045       .  S
O373        C386   1.251       .  A
O373       Co381   1.977       .  S
O374        C386   1.247       .  A
O374       Co379   1.954       .  S
O375        C385   1.266       .  A
O375       Co378   1.967       .  S
O376        C383   1.291       .  A
O376       Co381   2.100       .  S
O377        C384   1.269       .  A
O377       Co380   2.001       .  S
Co378       O382   2.011       .  S
Co379       O382   2.038       .  S
Co380       O382   2.028       .  S
Co381       O382   1.993       .  S
C383        C458   1.488       .  S
C384        C505   1.449       .  S
C385        C530   1.484       .  S
C386        C462   1.444   1_556  S
O387        C395   1.280       .  A
O387       Co407   2.040       .  S
O388        C396   1.270       .  A
O388       Co408   2.052       .  S
O389        C397   1.259       .  A
O389       Co409   1.897       .  S
O390        C398   1.260       .  A
O390       Co410   1.965       .  S
O391        C397   1.299       .  A
O391       Co408   2.113       .  S
O392        C398   1.273       .  A
O392       Co407   2.028       .  S
O393        C396   1.250       .  A
O393       Co410   1.953       .  S
O394        C395   1.267       .  A
O394       Co409   1.971       .  S
C395       C1525   1.480   1_455  S
C396        C457   1.498       .  S
C397        C486   1.478   1_455  S
C398        C470   1.480       .  S
O399        C412   1.257       .  A
O399       Co407   1.966       .  S
O400        C413   1.269       .  A
O400       Co408   1.909       .  S
O401        C414   1.258       .  A
O401       Co409   1.997       .  S
O402        C415   1.281       .  A
O402       Co410   2.046       .  S
O403        C415   1.256       .  A
O403       Co408   1.957       .  S
O404        C414   1.249       .  A
O404       Co407   1.965       .  S
O405        C412   1.272       .  A
O405       Co410   2.029       .  S
O406        C413   1.294       .  A
O406       Co409   2.104       .  S
Co407       O411   2.043       .  S
Co408       O411   2.043       .  S
Co409       O411   2.018       .  S
Co410       O411   2.041       .  S
C412        C453   1.485       .  S
C413        C474   1.489       .  S
C414        C490   1.462       .  S
C415        C449   1.478       .  S
O416        C424   1.273       .  A
O416       Co436   2.017       .  S
O417        C425   1.259       .  A
O417       Co437   2.000       .  S
O418        C426   1.297       .  A
O418       Co438   1.986       .  S
O419        C427   1.258       .  A
O419       Co439   1.969       .  S
O420        C426   1.297       .  A
O420       Co437   1.996       .  S
O421        C427   1.267       .  A
O421       Co436   2.011       .  S
O422        C425   1.259       .  A
O422       Co439   1.993       .  S
O423        C424   1.266       .  A
O423       Co438   1.971       .  S
C424        C481   1.464       .  S
C425        C493   1.486       .  S
C426        C534   1.490       .  S
C427        C986   1.476       .  S
O428        C441   1.261       .  A
O428       Co436   1.966       .  S
O429        C442   1.242       .  A
O429       Co437   1.990       .  S
O430        C443   1.276       .  A
O430       Co438   2.048       .  S
O431        C444   1.270       .  A
O431       Co439   1.967       .  S
O432        C444   1.282       .  A
O432       Co437   2.043       .  S
O433        C443   1.257       .  A
O433       Co436   1.957       .  S
O434        C441   1.277       .  A
O434       Co439   2.032       .  S
O435        C442   1.242       .  A
O435       Co438   2.010       .  S
Co436       O440   2.031       .  S
Co437       O440   2.013       .  S
Co438       O440   2.095       .  S
Co439       O440   2.058       .  S
C441        C497   1.489       .  S
C442        C450   1.476       .  S
C443        C538   1.483       .  S
C444        C478   1.498       .  S
C445       C1475   1.459       .  S
C445        C446   1.341       .  D
C445        H447   1.088       .  S
C446        C967   1.456   1_545  S
C446        H448   1.089       .  S
C449        C450   1.334       .  D
C449        H451   1.088       .  S
C450        H452   1.087       .  S
C453        C454   1.353       .  D
C453        H455   1.087       .  S
C454        H456   1.086       .  S
C457        H459   1.085       .  S
C458        H460   1.087       .  S
C461        C732   1.331       .  D
C461        H463   1.087       .  S
C462        C731   1.342       .  D
C462        H464   1.087       .  S
C465        C466   1.334       .  D
C465        H467   1.086       .  S
C466        C895   1.463       .  S
C466       H1008   1.089   1_565  S
H468       C1006   1.087       .  S
C469        C470   1.349       .  D
C469        H471   1.086       .  S
C470        H472   1.087       .  S
C473        C474   1.345       .  D
C473        H475   1.087       .  S
C474        H476   1.086       .  S
C477        C478   1.352       .  D
C477        H479   1.087       .  S
C478        H480   1.085       .  S
C481        C482   1.346       .  D
C481        H483   1.086       .  S
C482       C1417   1.477       .  S
C482        H484   1.087       .  S
C485       C1406   1.483   1_455  S
C485        H487   1.088       .  S
C486        H488   1.086       .  S
C489       C1570   1.344       .  D
C489        H491   1.088       .  S
C490       C1569   1.338   1_455  D
C490        H492   1.088       .  S
C493        C764   1.349       .  D
C493        H495   1.087       .  S
C494        C763   1.338       .  D
C494        H496   1.087       .  S
C497       C1038   1.344       .  D
C497        H499   1.086       .  S
C498       C1037   1.339   1_545  D
C498        H500   1.089       .  S
C501        C502   1.331       .  D
C501        H503   1.087       .  S
C502        H504   1.088       .  S
C505        C506   1.335       .  D
C505        H507   1.089       .  S
C506        H508   1.088       .  S
C509       C1320   1.341   1_655  D
C509        H511   1.086       .  S
C510       C1319   1.344   1_556  D
C510        H512   1.087       .  S
C513       C1594   1.352   1_455  D
C513        H515   1.086   1_455  S
C514       C1593   1.333       .  D
C514        H516   1.086       .  S
C517        C518   1.343       .  D
C517        H519   1.086       .  S
C518        C849   1.484       .  S
C518        H520   1.086       .  S
C521        C522   1.337       .  D
C521        H523   1.086       .  S
C522        H524   1.088       .  S
C525        C526   1.342       .  D
C525        H527   1.088       .  S
C526        C907   1.475       .  S
C526        H528   1.086       .  S
C529        C530   1.346       .  D
C529        H531   1.087       .  S
C530        H532   1.087       .  S
C533        H535   1.087       .  S
C534        H536   1.085       .  S
C537        C538   1.354       .  D
C537        H539   1.087       .  S
C538        H540   1.086       .  S
O541        C549   1.264       .  A
O541       Co561   1.998       .  S
O542        C550   1.240       .  A
O542       Co562   1.958       .  S
O543        C551   1.263       .  A
O543       Co563   1.961       .  S
O544       C1632   1.253       .  A
O544       Co564   2.003       .  S
O545        C551   1.267       .  A
O545       Co562   2.012       .  S
O546       C1632   1.245       .  A
O546       Co561   1.977       .  S
O547        C550   1.260       .  A
O547       Co564   2.026       .  S
O548        C549   1.268       .  A
O548       Co563   1.991       .  S
C549        C787   1.465       .  S
C550        C780   1.485       .  S
C551        C803   1.465       .  S
C552       O1624   1.276       .  A
C552       O1626   1.274   1_455  A
C552        C795   1.484       .  S
O553        C566   1.267       .  A
O553       Co561   1.860       .  S
O554        C567   1.261       .  A
O554       Co562   1.989       .  S
O555        C568   1.264       .  A
O555       Co563   1.998       .  S
O556        C569   1.302       .  A
O556       Co564   2.091       .  S
O557        C569   1.266       .  A
O557       Co562   1.871       .  S
O558        C568   1.267       .  A
O558       Co561   1.998       .  S
O559        C566   1.308       .  A
O559       Co564   2.116       .  S
O560        C567   1.270       .  A
O560       Co563   2.028       .  S
Co561       O565   1.922       .  S
Co562       O565   1.921       .  S
Co563       O565   2.087       .  S
Co564       O565   2.266       .  S
C566        C784   1.473       .  S
C567        C799   1.485       .  S
C568        C807   1.484       .  S
C569        C791   1.463       .  S
O570        C578   1.253       .  A
O570       Co590   1.994       .  S
O571        C579   1.256       .  A
O571       Co591   2.023       .  S
O572        C580   1.278       .  A
O572      Co1672   2.001       .  S
O573        C581   1.257       .  A
O573       Co593   2.000       .  S
O574       C1660   1.258       .  A
O574       Co591   1.993       .  S
O575        C581   1.258       .  A
O575       Co590   1.973       .  S
O576        C579   1.242       .  A
O576       Co593   1.951       .  S
O577        C578   1.251       .  A
O577       Co592   1.961       .  S
C578        C759   1.463       .  S
C580       O1654   1.272       .  A
C580        C772   1.485   1_655  S
C581        C768   1.459       .  S
O582        C595   1.253       .  A
O582       Co590   1.968       .  S
O583        C596   1.271       .  A
O583       Co591   1.982       .  S
O584        C597   1.274       .  A
O584       Co592   2.053       .  S
O585        C598   1.289       .  A
O585       Co593   2.082       .  S
O586        C598   1.261       .  A
O586       Co591   1.909       .  S
O587        C597   1.250       .  A
O587       Co590   1.928       .  S
O588        C595   1.259       .  A
O588       Co593   1.992       .  S
O589        C596   1.265       .  A
O589       Co592   1.986       .  S
Co590       O594   2.091       .  S
Co591       O594   2.029       .  S
Co592      O1652   1.970       .  S
Co592       O594   2.105       .  S
Co593       O594   2.158       .  S
C595        C776   1.471       .  S
C596       C1835   1.480       .  S
C597        C792   1.480       .  S
C598        C764   1.474       .  S
O599        C607   1.258       .  A
O599       Co619   2.021       .  S
O600        C608   1.237       .  A
O600       Co620   1.928       .  S
O601       Co621   2.017       .  S
O602        C610   1.254       .  A
O602       Co622   1.950       .  S
O603       Co620   1.958       .  S
O604        C610   1.272       .  A
O604       Co619   2.031       .  S
O605        C608   1.246       .  A
O605       Co622   1.998       .  S
O606        C607   1.253       .  A
O606       Co621   1.998       .  S
C607       C1832   1.505   1_455  S
C608        C731   1.456   1_565  S
C609        C739   1.473       .  S
C610        C779   1.463   1_554  S
O611        C624   1.253       .  A
O611       Co619   1.996       .  S
O612        C625   1.269       .  A
O612       Co620   2.008       .  S
O613        C626   1.263       .  A
O613       Co621   1.887       .  S
O614        C627   1.258       .  A
O614       Co622   1.951       .  S
O615        C627   1.276       .  A
O615       Co620   2.046       .  S
O616        C626   1.286       .  A
O616       Co619   2.056       .  S
O617        C624   1.252       .  A
O617       Co622   1.985       .  S
O618        C625   1.263       .  A
O618       Co621   1.998       .  S
Co619       O623   2.201       .  S
Co620       O623   2.083       .  S
Co621       O623   1.999       .  S
Co622       O623   2.130       .  S
C624        C743   1.473       .  S
C626        C783   1.463       .  S
C627        C747   1.488       .  S
O628        C636   1.256       .  A
O628       Co648   2.007       .  S
O629        C637   1.275       .  A
O629       Co649   2.029       .  S
O630        C638   1.254       .  A
O630       Co650   1.951       .  S
O631        C639   1.273       .  A
O631       Co651   1.915       .  S
O632        C638   1.277       .  A
O632       Co649   2.058       .  S
O633        C639   1.294       .  A
O633       Co648   2.110       .  S
O634        C637   1.270       .  A
O634       Co651   1.980       .  S
O635        C636   1.253       .  A
O635       Co650   1.959       .  S
C636        C724   1.465       .  S
C638        C735   1.480       .  S
C639        C771   1.493       .  S
O640        C653   1.261       .  A
O640       Co648   1.886       .  S
O641        C654   1.254       .  A
O641       Co649   1.948       .  S
O642        C655   1.280       .  A
O642       Co650   2.041       .  S
O643        C656   1.271       .  A
O643       Co651   2.010       .  S
O644        C656   1.254       .  A
O644       Co649   1.969       .  S
O645        C655   1.270       .  A
O645       Co648   1.973       .  S
O646        C653   1.297       .  A
O646       Co651   2.125       .  S
O647        C654   1.272       .  A
O647       Co650   2.021       .  S
Co648       O652   2.007       .  S
Co649       O652   2.043       .  S
Co650       O652   2.029       .  S
Co651       O652   2.026       .  S
C653        C728   1.476       .  S
C654        C775   1.467       .  S
C655        C800   1.486       .  S
C656        C732   1.476       .  S
O657        C665   1.261       .  A
O657       Co677   1.882       .  S
O658        C666   1.262       .  A
O658       Co678   1.960       .  S
O659        C667   1.267       .  A
O659       Co679   2.004       .  S
O660        C668   1.276       .  A
O660       Co680   2.022       .  S
O661        C667   1.266       .  A
O661       Co678   1.977       .  S
O662        C668   1.268       .  A
O662       Co677   1.969       .  S
O663        C666   1.273       .  A
O663       Co680   2.031       .  S
O664        C665   1.293       .  A
O664       Co679   2.126       .  S
C665       C1795   1.473   1_455  S
C666        C727   1.480       .  S
C667        C756   1.468       .  S
C668        C740   1.465       .  S
O669        C682   1.258       .  A
O669       Co677   1.985       .  S
O670        C683   1.273       .  A
O670       Co678   2.001       .  S
O671        C684   1.274       .  A
O671       Co679   1.899       .  S
O672        C685   1.257       .  A
O672       Co680   1.947       .  S
O673        C685   1.280       .  A
O673       Co678   2.031       .  S
O674        C684   1.292       .  A
O674       Co677   2.104       .  S
O675        C682   1.259       .  A
O675       Co680   1.982       .  S
O676        C683   1.268       .  A
O676       Co679   1.981       .  S
Co677       O681   1.972       .  S
Co678       O681   2.023       .  S
Co679       O681   2.017       .  S
Co680       O681   2.041       .  S
C682        C723   1.459       .  S
C683        C744   1.483       .  S
C684        C760   1.468       .  S
C685        C719   1.472       .  S
O686        C694   1.270       .  A
O686       Co706   2.005       .  S
O687        C695   1.241       .  A
O687       Co707   1.964       .  S
O688        C696   1.254       .  A
O688       Co708   1.924       .  S
O689        C697   1.257       .  A
O689       Co709   1.974   1_545  S
O690        C696   1.281       .  A
O690       Co707   2.056       .  S
O691        C697   1.271   1_565  A
O691       Co706   2.039       .  S
O692        C695   1.251       .  A
O692       Co709   2.000       .  S
O693        C694   1.262       .  A
O693       Co708   1.967       .  S
C694        C751   1.457       .  S
C695        C763   1.461   1_565  S
C696        C804   1.475       .  S
O698        C711   1.254       .  A
O698       Co706   1.975       .  S
O699        C712   1.247       .  A
O699       Co707   1.943       .  S
O700        C713   1.253       .  A
O700       Co708   2.016       .  S
O701        C714   1.254       .  A
O701       Co709   1.969       .  S
O702        C714   1.270       .  A
O702       Co707   2.031       .  S
O703        C713   1.255       .  A
O703       Co706   1.986       .  S
O704        C711   1.260       .  A
O704       Co709   1.983       .  S
O705        C712   1.266       .  A
O705       Co708   2.013       .  S
Co706       O710   2.106       .  S
Co707       O710   2.159       .  S
Co708       O710   2.035       .  S
Co709       O710   2.132       .  S
C711        C767   1.475       .  S
C712        C720   1.467       .  S
C713        C808   1.488       .  S
C714        C748   1.486       .  S
C715       C1745   1.470       .  S
C715        C716   1.342       .  D
C715        H717   1.087       .  S
C716        H718   1.087       .  S
C719        C720   1.330       .  D
C719        H721   1.087       .  S
C720        H722   1.088       .  S
C723        C724   1.340       .  D
C723        H725   1.088       .  S
C724        H726   1.086       .  S
C727        C998   1.349   1_554  D
C727        H729   1.086       .  S
C728        C997   1.350       .  D
C728        H730   1.088       .  S
C731        H733   1.087   1_554  S
C732        H734   1.087       .  S
C735        C736   1.342       .  D
C735        H737   1.087       .  S
C739        C740   1.348       .  D
C739        H741   1.087       .  S
C740        H742   1.086       .  S
C743        C744   1.347       .  D
C743        H745   1.087       .  S
C744        H746   1.086       .  S
C747        C748   1.354       .  D
C747        H749   1.086       .  S
C748        H750   1.087       .  S
C751        C752   1.342       .  D
C751        H753   1.087       .  S
C752       C1687   1.473       .  S
C752        H754   1.087       .  S
C755       C1676   1.470   1_455  S
C755       C1026   1.352       .  D
C755        H757   1.087       .  S
C756       C1025   1.338       .  D
C756        H758   1.086   1_455  S
C759       C1840   1.344       .  D
C759        H761   1.087       .  S
C760       C1839   1.337   1_455  D
C760        H762   1.087       .  S
C763        H765   1.088   1_545  S
C764        H766   1.086       .  S
C767        H769   1.086       .  S
C768        H770   1.086       .  S
C771        C772   1.345       .  D
C771        H773   1.087       .  S
C772        H774   1.086       .  S
C775        C776   1.353       .  D
C775        H777   1.087       .  S
C776        H778   1.086       .  S
C779       C2130   1.336       .  D
C779        H781   1.087       .  S
C780       C2129   1.339       .  D
C780        H782   1.087       .  S
C783       C1864   1.334   1_455  D
C783        H785   1.087       .  S
C784       C1863   1.343       .  D
C784        H786   1.089       .  S
C787        C788   1.338       .  D
C787        H789   1.087       .  S
C788        H790   1.087       .  S
C791        C792   1.349       .  D
C791        H793   1.087       .  S
C792        H794   1.086       .  S
C795        C796   1.353       .  D
C795        H797   1.086       .  S
C796        H798   1.087       .  S
C799        C800   1.351       .  D
C799        H801   1.086       .  S
C800        H802   1.087       .  S
C803       C1074   1.340       .  D
C803        H805   1.086       .  S
C804       C1073   1.349       .  D
C804        H806   1.087   1_554  S
C807        C808   1.343       .  D
C807        H809   1.087       .  S
C808        H810   1.086       .  S
O811        C819   1.280       .  A
O811       Co831   1.930       .  S
O812        C820   1.259       .  A
O812       Co832   1.974       .  S
O813        C821   1.292       .  A
O813       Co833   2.060       .  S
O814       C1902   1.262       .  A
O814       Co834   1.997       .  S
O815        C821   1.269       .  A
O815       Co832   1.921       .  S
O816       C1902   1.263       .  A
O816       Co831   2.000       .  S
O817        C820   1.268       .  A
O817       Co834   2.014       .  S
O818        C819   1.291       .  A
O818       Co833   2.050       .  S
C819       C1057   1.483       .  S
C820       C1050   1.460       .  S
C821       C1073   1.485   1_556  S
C822       O1894   1.277       .  A
C822       O1896   1.280   1_455  A
C822       C1065   1.499       .  S
O823        C836   1.278       .  A
O823       Co831   2.019       .  S
O824        C837   1.246       .  A
O824       Co832   1.973       .  S
O825        C838   1.249       .  A
O825       Co833   1.993       .  S
O826        C839   1.266       .  A
O826       Co834   1.970       .  S
O827        C839   1.264       .  A
O827       Co832   1.988       .  S
O828        C838   1.243       .  A
O828       Co831   1.966       .  S
O829        C836   1.273       .  A
O829       Co834   1.999       .  S
O830        C837   1.255       .  A
O830       Co833   1.998       .  S
Co831       O835   1.936       .  S
Co832       O835   1.944       .  S
Co833       O835   2.252       .  S
Co834       O835   2.096       .  S
C836       C1054   1.485       .  S
C837       C1069   1.477       .  S
C838       C1077   1.471       .  S
C839       C1061   1.454       .  S
O840        C848   1.272       .  A
O840       Co860   2.030       .  S
O841        C849   1.254       .  A
O841       Co861   2.060       .  S
O842        C850   1.297       .  A
O842      Co1942   2.097   1_455  S
O843        C851   1.278       .  A
O843       Co863   2.022       .  S
O844       C1930   1.270       .  A
O844       Co861   2.037       .  S
O845        C851   1.265       .  A
O845       Co860   1.968       .  S
O846        C849   1.231       .  A
O846       Co863   1.967       .  S
O847        C848   1.245       .  A
O847       Co862   1.920       .  S
C848       C1029   1.444       .  S
C850       O1924   1.262   1_455  A
C850       C1042   1.482       .  S
C851       C1038   1.480       .  S
O852        C865   1.262       .  A
O852       Co860   2.004       .  S
O853        C866   1.281       .  A
O853       Co861   1.992       .  S
O854        C867   1.269       .  A
O854       Co862   2.026       .  S
O855        C868   1.301       .  A
O855       Co863   2.006       .  S
O856        C868   1.289       .  A
O856       Co861   1.946       .  S
O857        C867   1.254       .  A
O857       Co860   1.932       .  S
O858        C865   1.269       .  A
O858       Co863   2.011       .  S
O859        C866   1.274       .  A
O859       Co862   2.016       .  S
Co860       O864   2.047       .  S
Co861       O864   2.064       .  S
Co862      O1922   1.948       .  S
Co862       O864   2.032       .  S
Co863       O864   2.001       .  S
C865       C1046   1.503       .  S
C866       C2105   1.493       .  S
C867       C1062   1.462       .  S
C868       C1034   1.463       .  S
O869        C877   1.300       .  A
O869       Co889   2.144       .  S
O870        C878   1.269       .  A
O870       Co890   2.026       .  S
O871       Co891   1.971       .  S
O872        C880   1.256       .  A
O872       Co892   1.950       .  S
O873       Co890   2.036   1_545  S
O874        C880   1.259       .  A
O874       Co889   1.992       .  S
O875        C878   1.263       .  A
O875       Co892   1.958       .  S
O876        C877   1.261       .  A
O876       Co891   1.857       .  S
C877       C2102   1.471   1_455  S
C878       C1001   1.473   1_565  S
C879       C1009   1.483       .  S
C880       C1049   1.449       .  S
O881        C894   1.280       .  A
O881       Co889   1.994       .  S
O882        C895   1.267       .  A
O882       Co890   1.993       .  S
O883        C896   1.297       .  A
O883       Co891   2.112       .  S
O884        C897   1.267       .  A
O884       Co892   1.992       .  S
O885        C897   1.271       .  A
O885       Co890   1.976       .  S
O886        C896   1.268       .  A
O886       Co889   1.906       .  S
O887        C894   1.278       .  A
O887       Co892   2.018       .  S
O888        C895   1.258       .  A
O888       Co891   1.974       .  S
Co889       O893   2.014       .  S
Co890       O893   2.058       .  S
Co891       O893   1.976       .  S
Co892       O893   2.004       .  S
C894       C1013   1.485       .  S
C896       C1053   1.486       .  S
C897       C1017   1.465       .  S
O898        C906   1.266       .  A
O898       Co918   1.908       .  S
O899        C907   1.258       .  A
O899       Co919   1.954       .  S
O900        C908   1.268       .  A
O900       Co920   2.035       .  S
O901        C909   1.281       .  A
O901       Co921   2.045       .  S
O902        C908   1.248       .  A
O902       Co919   1.944       .  S
O903        C909   1.266       .  A
O903       Co918   1.971       .  S
O904        C907   1.267       .  A
O904       Co921   2.021       .  S
O905        C906   1.295       .  A
O905       Co920   2.118       .  S
C906        C994   1.482       .  S
C908       C1005   1.478       .  S
C909       C1041   1.482       .  S
O910        C923   1.264       .  A
O910       Co918   2.013       .  S
O911        C924   1.283       .  A
O911       Co919   2.052       .  S
O912        C925   1.271       .  A
O912       Co920   1.900       .  S
O913        C926   1.263       .  A
O913       Co921   1.966       .  S
O914        C926   1.270       .  A
O914       Co919   2.001       .  S
O915        C925   1.295       .  A
O915       Co918   2.090       .  S
O916        C923   1.256       .  A
O916       Co921   1.968       .  S
O917        C924   1.271       .  A
O917       Co920   1.997       .  S
Co918       O922   2.011       .  S
Co919       O922   2.015       .  S
Co920       O922   2.023       .  S
Co921       O922   2.047       .  S
C923        C998   1.479       .  S
C924       C1045   1.510       .  S
C925       C1070   1.474       .  S
C926       C1002   1.464       .  S
O927        C935   1.267       .  A
O927       Co947   1.859       .  S
O928        C936   1.255       .  A
O928       Co948   1.933       .  S
O929        C937   1.259       .  A
O929       Co949   2.024       .  S
O930        C938   1.271       .  A
O930       Co950   2.009       .  S
O931        C937   1.244       .  A
O931       Co948   1.944       .  S
O932        C938   1.268       .  A
O932       Co947   1.989       .  S
O933        C936   1.280       .  A
O933       Co950   2.058       .  S
O934        C935   1.296       .  A
O934       Co949   2.098       .  S
C935       C2065   1.440   1_455  S
C936        C997   1.483       .  S
C937       C1026   1.470       .  S
C938       C1010   1.479       .  S
O939        C952   1.265       .  A
O939       Co947   2.017       .  S
O940        C953   1.284       .  A
O940       Co948   2.051       .  S
O941        C954   1.257       .  A
O941       Co949   1.872       .  S
O942        C955   1.252       .  A
O942       Co950   1.936       .  S
O943        C955   1.262       .  A
O943       Co948   1.977       .  S
O944        C954   1.305       .  A
O944       Co947   2.129       .  S
O945        C952   1.257       .  A
O945       Co950   1.984       .  S
O946        C953   1.264       .  A
O946       Co949   1.964       .  S
Co947       O951   1.996       .  S
Co948       O951   2.020       .  S
Co949       O951   1.995       .  S
Co950       O951   2.038       .  S
C952        C993   1.478       .  S
C953       C1014   1.489       .  S
C954       C1030   1.468       .  S
C955        C989   1.431       .  S
O956        C964   1.272       .  A
O956       Co976   2.017       .  S
O957        C965   1.245       .  A
O957       Co977   1.955       .  S
O958        C966   1.257       .  A
O958       Co978   1.890       .  S
O959        C967   1.258       .  A
O959       Co979   1.943       .  S
O960        C966   1.286       .  A
O960       Co977   2.070       .  S
O961        C967   1.270       .  A
O961       Co976   2.021       .  S
O962        C965   1.254       .  A
O962       Co979   1.979       .  S
O963        C964   1.262       .  A
O963       Co978   1.958       .  S
C964       C1021   1.457       .  S
C965       C1033   1.458       .  S
C966       C1074   1.465       .  S
O968        C981   1.250       .  A
O968       Co976   1.971       .  S
O969        C982   1.243       .  A
O969       Co977   1.906       .  S
O970        C983   1.259       .  A
O970       Co978   2.024       .  S
O971        C984   1.243       .  A
O971       Co979   1.945       .  S
O972        C984   1.264       .  A
O972       Co977   2.011       .  S
O973        C983   1.252       .  A
O973       Co976   1.963       .  S
O974        C981   1.258       .  A
O974       Co979   1.969       .  S
O975        C982   1.257       .  A
O975       Co978   2.007       .  S
Co976       O980   2.074       .  S
Co977       O980   2.145       .  S
Co978       O980   2.021       .  S
Co979       O980   2.098       .  S
C981       C1037   1.455       .  S
C982        C990   1.442       .  S
C983       C1078   1.471       .  S
C984       C1018   1.467       .  S
C985       C2015   1.474       .  S
C985        C986   1.349       .  D
C985        H987   1.087       .  S
C986        H988   1.087       .  S
C989        C990   1.335       .  D
C989        H991   1.088       .  S
C990        H992   1.088       .  S
C993        C994   1.346       .  D
C993        H995   1.086       .  S
C994        H996   1.087       .  S
C997        H999   1.085       .  S
C998       H1000   1.087       .  S
C1001      H1003   1.086       .  S
C1002      H1004   1.088   1_556  S
C1005      C1006   1.354       .  D
C1005      H1007   1.086       .  S
C1009      C1010   1.345       .  D
C1009      H1011   1.087       .  S
C1010      H1012   1.087       .  S
C1013      C1014   1.342       .  D
C1013      H1015   1.087       .  S
C1014      H1016   1.087       .  S
C1017      C1018   1.333       .  D
C1017      H1019   1.088       .  S
C1018      H1020   1.088       .  S
C1021      C1022   1.343       .  D
C1021      H1023   1.087       .  S
C1022      C1957   1.473       .  S
C1022      H1024   1.086       .  S
C1025      C1946   1.471   1_454  S
C1025      H1027   1.088   1_554  S
C1026      H1028   1.086   1_455  S
C1029      C2110   1.329       .  D
C1029      H1031   1.089       .  S
C1030      C2109   1.331   1_455  D
C1030      H1032   1.087   1_455  S
C1033      H1035   1.087       .  S
C1034      H1036   1.087       .  S
C1037      H1039   1.086       .  S
C1038      H1040   1.087       .  S
C1041      C1042   1.344       .  D
C1041      H1043   1.087       .  S
C1042      H1044   1.087       .  S
C1045      C1046   1.359       .  D
C1045      H1047   1.087       .  S
C1046      H1048   1.086       .  S
C1049      C1860   1.342       .  D
C1049      H1051   1.087   1_455  S
C1050      C1859   1.353   1_556  D
C1050      H1052   1.086       .  S
C1053      C2134   1.350   1_455  D
C1053      H1055   1.086   1_455  S
C1054      C2133   1.351       .  D
C1054      H1056   1.087       .  S
C1057      C1058   1.336       .  D
C1057      H1059   1.087       .  S
C1058      H1060   1.086       .  S
C1061      C1062   1.341       .  D
C1061      H1063   1.088       .  S
C1062      H1064   1.086       .  S
C1065      C1066   1.355       .  D
C1065      H1067   1.086       .  S
C1066      H1068   1.086       .  S
C1069      C1070   1.343       .  D
C1069      H1071   1.087       .  S
C1070      H1072   1.087       .  S
C1073      H1075   1.086       .  S
C1074      H1076   1.088       .  S
C1077      C1078   1.343       .  D
C1077      H1079   1.087       .  S
C1078      H1080   1.087       .  S
O1081      C1089   1.254       .  A
O1081     Co1101   2.034       .  S
O1082      C1090   1.262       .  A
O1082     Co1102   1.940       .  S
O1083      C1091   1.235       .  A
O1083     Co1103   1.935       .  S
O1084     Co1104   2.021   1_455  S
O1085      C1091   1.258       .  A
O1085     Co1102   2.030       .  S
O1086     Co1101   1.978       .  S
O1087      C1090   1.273       .  A
O1087     Co1104   2.013       .  S
O1088      C1089   1.236       .  A
O1088     Co1103   1.946       .  S
C1089      C1327   1.468       .  S
C1090      C1320   1.454   1_655  S
C1091      C1343   1.476       .  S
C1092      C1335   1.495       .  S
O1093      C1106   1.253       .  A
O1093     Co1101   1.870       .  S
O1094      C1107   1.257       .  A
O1094     Co1102   1.951       .  S
O1095      C1108   1.271       .  A
O1095     Co1103   2.040       .  S
O1096      C1109   1.252       .  A
O1096     Co1104   1.985       .  S
O1097      C1109   1.253       .  A
O1097     Co1102   1.994       .  S
O1098      C1108   1.252       .  A
O1098     Co1101   1.978       .  S
O1099      C1106   1.287       .  A
O1099     Co1104   2.065       .  S
O1100      C1107   1.270       .  A
O1100     Co1103   2.021       .  S
Co1101     O1105   1.972       .  S
Co1102     O1105   2.136       .  S
Co1103     O1105   2.088       .  S
Co1104     O1105   2.202       .  S
C1106      C1324   1.442       .  S
C1107      C1339   1.473       .  S
C1108      C1347   1.481       .  S
C1109      C1331   1.482       .  S
O1110      C1118   1.270       .  A
O1110     Co1130   2.048       .  S
O1111      C1119   1.280       .  A
O1111     Co1131   2.042       .  S
O1112      C1120   1.256       .  A
O1113      C1121   1.266   1_565  A
O1113     Co1133   1.926   1_565  S
O1114     Co1131   1.976       .  S
O1115      C1121   1.300       .  A
O1115     Co1130   2.107       .  S
O1116      C1119   1.259       .  A
O1116     Co1133   1.944       .  S
O1117      C1118   1.253       .  A
O1117     Co1132   1.958       .  S
C1118      C1299   1.498       .  S
C1119      C1868   1.455   1_545  S
C1120      C1312   1.450       .  S
C1121      C1308   1.487   1_545  S
O1122      C1135   1.271       .  A
O1122     Co1130   1.888       .  S
O1123      C1136   1.267       .  A
O1123     Co1131   1.970       .  S
O1124      C1137   1.278       .  A
O1124     Co1132   2.038       .  S
O1125      C1138   1.268       .  A
O1125     Co1133   2.049       .  S
O1126      C1138   1.253       .  A
O1126     Co1131   1.962       .  S
O1127      C1137   1.264       .  A
O1127     Co1130   1.972       .  S
O1128      C1135   1.290       .  A
O1128     Co1133   2.077       .  S
O1129      C1136   1.270       .  A
O1129     Co1132   2.017       .  S
Co1130     O1134   2.002       .  S
Co1131     O1134   2.026       .  S
Co1132     O1134   2.038       .  S
Co1133     O1134   2.021       .  S
C1135      C1316   1.462       .  S
C1137      C1332   1.474       .  S
C1138      C1304   1.488       .  S
O1139      C1147   1.292       .  A
O1139     Co1159   2.119       .  S
O1140      C1148   1.266       .  A
O1140     Co1160   2.022       .  S
O1141      C1689   1.264       .  A
O1141     Co1161   1.966       .  S
O1142      C1150   1.257       .  A
O1142     Co1162   1.957       .  S
O1143      C1689   1.286       .  A
O1143     Co1160   2.067       .  S
O1144      C1150   1.265       .  A
O1144     Co1159   2.006       .  S
O1145      C1148   1.258       .  A
O1145     Co1162   1.948       .  S
O1146      C1147   1.262       .  A
O1146     Co1161   1.857       .  S
C1148      C1271   1.469       .  S
C1149      O1681   1.262   1_545  A
C1149      O1683   1.277       .  A
C1149      C1279   1.471       .  S
C1150      C1319   1.464       .  S
O1151      C1164   1.270       .  A
O1151     Co1159   1.970       .  S
O1152      C1165   1.254       .  A
O1152     Co1160   1.981       .  S
O1153      C1166   1.297       .  A
O1153     Co1161   2.099       .  S
O1154      C1167   1.274       .  A
O1154     Co1162   2.019       .  S
O1155      C1167   1.262       .  A
O1155     Co1160   1.959       .  S
O1156      C1166   1.269       .  A
O1156     Co1159   1.904       .  S
O1157      C1164   1.275       .  A
O1157     Co1162   2.009       .  S
O1158      C1165   1.260       .  A
O1158     Co1161   1.997       .  S
Co1159     O1163   2.023       .  S
Co1160     O1163   2.050       .  S
Co1161     O1163   1.981       .  S
Co1162     O1163   2.015       .  S
C1164      C1283   1.467       .  S
C1165      C1816   1.470       .  S
C1166      C1323   1.478       .  S
C1167      C1287   1.470       .  S
O1168      C1176   1.264       .  A
O1168     Co1188   2.021       .  S
O1169      C1177   1.276       .  A
O1169     Co1189   2.024       .  S
O1170      C1178   1.267       .  A
O1170     Co1190   1.967       .  S
O1171      C1179   1.266       .  A
O1171     Co1191   1.868       .  S
O1172      C1178   1.272       .  A
O1172     Co1189   2.026       .  S
O1173      C1179   1.295       .  A
O1173     Co1188   2.105       .  S
O1174      C1177   1.270       .  A
O1174     Co1191   1.979       .  S
O1175      C1176   1.255       .  A
O1175     Co1190   1.956       .  S
C1176      C1264   1.472       .  S
C1177      C1876   1.481   1_545  S
C1178      C1275   1.476   1_545  S
C1179      C1311   1.448       .  S
O1180      C1193   1.264       .  A
O1180     Co1188   1.905       .  S
O1181      C1194   1.267       .  A
O1181     Co1189   1.968       .  S
O1182      C1195   1.281       .  A
O1182     Co1190   2.038       .  S
O1183      C1196   1.259       .  A
O1183     Co1191   1.968       .  S
O1184      C1196   1.266       .  A
O1184     Co1189   1.995       .  S
O1185      C1195   1.269       .  A
O1185     Co1188   1.960       .  S
O1186      C1193   1.296       .  A
O1186     Co1191   2.117       .  S
O1187      C1194   1.265       .  A
O1187     Co1190   1.987       .  S
Co1188     O1192   2.000       .  S
Co1189     O1192   2.044       .  S
Co1190     O1192   2.018       .  S
Co1191     O1192   1.991       .  S
C1193      C1268   1.486       .  S
C1194      C1315   1.456       .  S
C1195      C1340   1.465       .  S
C1196      C1272   1.463       .  S
O1197      C1205   1.279       .  A
O1197     Co1217   2.039       .  S
O1198      C1206   1.261       .  A
O1198     Co1218   2.019       .  S
O1199      C1207   1.256       .  A
O1199     Co1219   1.882       .  S
O1200      C1208   1.255       .  A
O1200     Co1220   1.951       .  S
O1201      C1207   1.302       .  A
O1201     Co1218   2.116       .  S
O1202      C1208   1.276       .  A
O1202     Co1217   2.044       .  S
O1203      C1206   1.254       .  A
O1203     Co1220   1.961       .  S
O1204      C1205   1.269       .  A
O1204     Co1219   1.986       .  S
C1206      C1267   1.483       .  S
C1207      C1296   1.460       .  S
C1208      C1280   1.480       .  S
O1209      C1222   1.252       .  A
O1209     Co1217   1.949       .  S
O1210      C1223   1.267       .  A
O1210     Co1218   1.882       .  S
O1211      C1224   1.253       .  A
O1211     Co1219   1.991       .  S
O1212      C1225   1.276       .  A
O1212     Co1220   2.026       .  S
O1213      C1225   1.270       .  A
O1213     Co1218   1.987       .  S
O1214      C1224   1.250       .  A
O1214     Co1217   1.978       .  S
O1215      C1222   1.274       .  A
O1215     Co1220   2.037       .  S
O1216      C1223   1.298       .  A
O1216     Co1219   2.110       .  S
Co1217     O1221   2.042       .  S
Co1218     O1221   2.027       .  S
Co1219     O1221   2.010       .  S
Co1220     O1221   2.040       .  S
C1222      C1263   1.476       .  S
C1223      C1284   1.478       .  S
C1224      C1300   1.462       .  S
C1225      C1259   1.485       .  S
O1226      C1234   1.258       .  A
O1226     Co1246   1.891       .  S
O1227      C1235   1.251       .  A
O1227     Co1247   1.941       .  S
O1228      C1236   1.263       .  A
O1228     Co1248   2.023       .  S
O1229      C1237   1.278       .  A
O1229     Co1249   2.036       .  S
O1230      C1236   1.245       .  A
O1230     Co1247   1.939       .  S
O1231      C1237   1.262       .  A
O1231     Co1246   1.967       .  S
O1232      C1235   1.268       .  A
O1232     Co1249   2.023       .  S
O1233      C1234   1.296       .  A
O1233     Co1248   2.121       .  S
C1234      C1291   1.471       .  S
C1235      C1303   1.461       .  S
C1236      C1344   1.471       .  S
C1237      C1796   1.471       .  S
O1238      C1251   1.256       .  A
O1238     Co1246   1.994       .  S
O1239      C1252   1.282       .  A
O1239     Co1247   2.034       .  S
O1240      C1253   1.272       .  A
O1240     Co1248   1.925       .  S
O1241      C1254   1.261       .  A
O1241     Co1249   1.954       .  S
O1242      C1254   1.272       .  A
O1242     Co1247   2.023       .  S
O1243      C1253   1.290       .  A
O1243     Co1246   2.080       .  S
O1244      C1251   1.255       .  A
O1244     Co1249   1.972       .  S
O1245      C1252   1.272       .  A
O1245     Co1248   1.985       .  S
Co1246     O1250   1.987       .  S
Co1247     O1250   2.004       .  S
Co1248     O1250   2.048       .  S
Co1249     O1250   2.047       .  S
C1251      C1307   1.457       .  S
C1252      C1260   1.490       .  S
C1253      C1348   1.479       .  S
C1254      C1288   1.477       .  S
C1255      C1256   1.330       .  D
C1255      H1257   1.090       .  S
C1256      C1777   1.441       .  S
C1256      H1258   1.090       .  S
C1259      C1260   1.350       .  D
C1259      H1261   1.085       .  S
C1260      H1262   1.087       .  S
C1263      C1264   1.352       .  D
C1263      H1265   1.087       .  S
C1264      H1266   1.086       .  S
C1267      C1538   1.348       .  D
C1267      H1269   1.086   1_554  S
C1268      C1537   1.348       .  D
C1268      H1270   1.086       .  S
C1271      C2082   1.338       .  D
C1271      H1273   1.086       .  S
C1272      C2081   1.334       .  D
C1272      H1274   1.089       .  S
C1275      C1276   1.338       .  D
C1275      H1277   1.086       .  S
C1276      C1705   1.470       .  S
C1276      H1818   1.088   1_565  S
H1278      C1816   1.088       .  S
C1279      C1280   1.352       .  D
C1279      H1281   1.086       .  S
C1280      H1282   1.087       .  S
C1283      C1284   1.345       .  D
C1283      H1285   1.087       .  S
C1284      H1286   1.086       .  S
C1287      C1288   1.345       .  D
C1287      H1289   1.088       .  S
C1288      H1290   1.087       .  S
C1291      C1292   1.340       .  D
C1291      H1293   1.088       .  S
C1292      H1294   1.086       .  S
C1295      C1566   1.351       .  D
C1295      H1297   1.087       .  S
C1296      C1565   1.327   1_554  D
C1296      H1298   1.087       .  S
C1299      H1301   1.085       .  S
C1300      H1302   1.087       .  S
C1303      C2114   1.336       .  D
C1303      H1305   1.087       .  S
C1304      C2113   1.348   1_545  D
C1304      H1306   1.088       .  S
C1307      C1848   1.349       .  D
C1307      H1309   1.086       .  S
C1308      C1847   1.369       .  D
C1308      H1310   1.086   1_565  S
C1311      C1312   1.336       .  D
C1311      H1313   1.088       .  S
C1312      H1314   1.087       .  S
C1315      C1316   1.335       .  D
C1315      H1317   1.087       .  S
C1316      H1318   1.087       .  S
C1319      H1321   1.087       .  S
C1320      H1322   1.088       .  S
C1323      H1325   1.086       .  S
C1324      H1326   1.089       .  S
C1327      C1328   1.355       .  D
C1327      H1329   1.087       .  S
C1328      C1659   1.467       .  S
C1328      H1330   1.087       .  S
C1331      C1332   1.347       .  D
C1331      H1333   1.087       .  S
C1332      H1334   1.086       .  S
C1335      C1336   1.352       .  D
C1335      H1337   1.087       .  S
C1336      C1717   1.491       .  S
C1336      H1338   1.086       .  S
C1339      C1340   1.343       .  D
C1339      H1341   1.087       .  S
C1340      H1342   1.086       .  S
C1343      C1614   1.357       .  D
C1343      H1345   1.086       .  S
C1344      C1613   1.351   1_554  D
C1344      H1346   1.086       .  S
C1347      C1348   1.344       .  D
C1347      H1349   1.087       .  S
C1348      H1350   1.087       .  S
O1351      C1359   1.267       .  A
O1351     Co1371   1.877       .  S
O1352      C1360   1.263       .  A
O1352     Co1372   1.951       .  S
O1353      C1361   1.263       .  A
O1353     Co1373   2.007       .  S
O1354     Co1374   2.009   1_455  S
O1355      C1361   1.256       .  A
O1355     Co1372   1.963       .  S
O1356     Co1371   1.984       .  S
O1357      C1360   1.271       .  A
O1357     Co1374   2.026       .  S
O1358      C1359   1.293       .  A
O1358     Co1373   2.100       .  S
C1359      C1597   1.466       .  S
C1360      C1590   1.470   1_655  S
C1361      C1613   1.466       .  S
C1362      C1605   1.489       .  S
O1363      C1376   1.265       .  A
O1363     Co1371   2.018       .  S
O1364      C1377   1.279       .  A
O1364     Co1372   2.028       .  S
O1365      C1378   1.264       .  A
O1365     Co1373   1.885       .  S
O1366      C1379   1.255       .  A
O1366     Co1374   1.949       .  S
O1367      C1379   1.267       .  A
O1367     Co1372   1.982       .  S
O1368      C1378   1.299       .  A
O1368     Co1371   2.104       .  S
O1369      C1376   1.261       .  A
O1369     Co1374   1.981       .  S
O1370      C1377   1.268       .  A
O1370     Co1373   1.972       .  S
Co1371     O1375   1.986       .  S
Co1372     O1375   2.029       .  S
Co1373     O1375   1.992       .  S
Co1374     O1375   2.032       .  S
C1376      C1594   1.492       .  S
C1377      C1609   1.478       .  S
C1378      C1617   1.459       .  S
C1379      C1601   1.432       .  S
O1380      C1388   1.263       .  A
O1380     Co1400   1.882       .  S
O1381      C1389   1.248       .  A
O1381     Co1401   1.989       .  S
O1382      C1390   1.299       .  A
O1383      C1391   1.266       .  A
O1383     Co1403   2.020       .  S
O1384     Co1401   1.856       .  S
O1385      C1391   1.253       .  A
O1385     Co1400   1.965       .  S
O1386      C1389   1.266       .  A
O1386     Co1403   2.038       .  S
O1387      C1388   1.298       .  A
O1387     Co1402   2.079       .  S
C1388      C1569   1.464       .  S
C1389      C2138   1.476   1_545  S
C1390      C1582   1.425       .  S
C1391      C1578   1.468       .  S
O1392      C1405   1.264       .  A
O1392     Co1400   2.009       .  S
O1393      C1406   1.249       .  A
O1393     Co1401   1.996       .  S
O1394      C1407   1.248       .  A
O1394     Co1402   1.967       .  S
O1395      C1408   1.251       .  A
O1395     Co1403   1.958       .  S
O1396      C1408   1.267       .  A
O1396     Co1401   1.990       .  S
O1397      C1407   1.241       .  A
O1397     Co1400   1.922       .  S
O1398      C1405   1.258       .  A
O1398     Co1403   1.942       .  S
O1399      C1406   1.249       .  A
O1399     Co1402   1.990       .  S
Co1400     O1404   1.932       .  S
Co1401     O1404   1.888       .  S
Co1402     O1404   2.240       .  S
Co1403     O1404   2.097       .  S
C1405      C1586   1.460       .  S
C1407      C1602   1.437       .  S
C1408      C1574   1.458       .  S
O1409      C1417   1.293       .  A
O1409     Co1429   2.123       .  S
O1410      C1418   1.265       .  A
O1410     Co1430   2.011       .  S
O1411      C1959   1.258       .  A
O1411     Co1431   1.963       .  S
O1412      C1420   1.242       .  A
O1412     Co1432   1.927       .  S
O1413      C1959   1.285       .  A
O1413     Co1430   2.067       .  S
O1414      C1420   1.263       .  A
O1414     Co1429   2.028       .  S
O1415      C1418   1.246       .  A
O1415     Co1432   1.932       .  S
O1416      C1417   1.258       .  A
O1416     Co1431   1.891       .  S
C1418      C1541   1.456       .  S
C1419      O1951   1.258   1_545  A
C1419      O1953   1.285       .  A
C1419      C1549   1.499       .  S
C1420      C1589   1.471       .  S
O1421      C1434   1.276       .  A
O1421     Co1429   1.998       .  S
O1422      C1435   1.258       .  A
O1422     Co1430   1.983       .  S
O1423      C1436   1.283       .  A
O1423     Co1431   2.056       .  S
O1424      C1437   1.275       .  A
O1424     Co1432   2.017       .  S
O1425      C1437   1.268       .  A
O1425     Co1430   1.975       .  S
O1426      C1436   1.276       .  A
O1426     Co1429   1.922       .  S
O1427      C1434   1.280       .  A
O1427     Co1432   2.031       .  S
O1428      C1435   1.259       .  A
O1428     Co1431   1.986       .  S
Co1429     O1433   2.063       .  S
Co1430     O1433   2.065       .  S
Co1431     O1433   1.973       .  S
Co1432     O1433   1.983       .  S
C1434      C1553   1.498       .  S
C1435      C2086   1.460       .  S
C1436      C1593   1.463       .  S
C1437      C1557   1.482       .  S
O1438      C1446   1.264       .  A
O1438     Co1458   2.038       .  S
O1439      C1447   1.274       .  A
O1439     Co1459   2.017       .  S
O1440      C1448   1.255       .  A
O1440     Co1460   1.942       .  S
O1441      C1449   1.267       .  A
O1441     Co1461   1.852       .  S
O1442      C1448   1.276       .  A
O1442     Co1459   2.041       .  S
O1443      C1449   1.283       .  A
O1443     Co1458   2.069       .  S
O1444      C1447   1.269       .  A
O1444     Co1461   1.980       .  S
O1445      C1446   1.253       .  A
O1445     Co1460   1.957       .  S
C1446      C1534   1.488       .  S
C1447      C2146   1.472   1_545  S
C1448      C1545   1.477   1_545  S
C1449      C1581   1.438       .  S
O1450      C1463   1.269       .  A
O1450     Co1458   1.921       .  S
O1451      C1464   1.260       .  A
O1451     Co1459   1.948       .  S
O1452      C1465   1.283       .  A
O1452     Co1460   2.040       .  S
O1453      C1466   1.259       .  A
O1453     Co1461   1.982       .  S
O1454      C1466   1.266       .  A
O1454     Co1459   2.008       .  S
O1455      C1465   1.268       .  A
O1455     Co1458   1.958       .  S
O1456      C1463   1.290       .  A
O1456     Co1461   2.081       .  S
O1457      C1464   1.270       .  A
O1457     Co1460   2.002       .  S
Co1458     O1462   2.018       .  S
Co1459     O1462   2.045       .  S
Co1460     O1462   2.003       .  S
Co1461     O1462   1.968       .  S
C1463      C1538   1.473   1_556  S
C1464      C1585   1.449       .  S
C1465      C1610   1.476       .  S
C1466      C1542   1.478   1_556  S
O1467      C1475   1.271       .  A
O1467     Co1487   1.863       .  S
O1468      C1476   1.262       .  A
O1468     Co1488   1.976       .  S
O1469      C1477   1.294       .  A
O1469     Co1489   2.076       .  S
O1470      C1478   1.259       .  A
O1470     Co1490   1.992       .  S
O1471      C1477   1.265       .  A
O1471     Co1488   1.891       .  S
O1472      C1478   1.272       .  A
O1472     Co1487   2.025       .  S
O1473      C1476   1.276       .  A
O1473     Co1490   2.051       .  S
O1474      C1475   1.300       .  A
O1474     Co1489   2.075       .  S
C1476      C1537   1.483       .  S
C1477      C1566   1.471       .  S
C1478      C1550   1.494       .  S
O1479      C1492   1.267       .  A
O1479     Co1487   1.983       .  S
O1480      C1493   1.253       .  A
O1480     Co1488   1.990       .  S
O1481      C1494   1.243       .  A
O1481     Co1489   1.971       .  S
O1482      C1495   1.254       .  A
O1482     Co1490   1.948       .  S
O1483      C1495   1.268       .  A
O1483     Co1488   1.987       .  S
O1484      C1494   1.241       .  A
O1484     Co1487   1.971       .  S
O1485      C1492   1.273       .  A
O1485     Co1490   2.015       .  S
O1486      C1493   1.259       .  A
O1486     Co1489   2.018       .  S
Co1487     O1491   1.917       .  S
Co1488     O1491   1.942       .  S
Co1489     O1491   2.242       .  S
Co1490     O1491   2.093       .  S
C1492      C1533   1.476       .  S
C1493      C1554   1.502       .  S
C1494      C1570   1.461       .  S
C1495      C1529   1.444       .  S
O1496      C1504   1.243       .  A
O1496     Co1516   1.967       .  S
O1497      C1505   1.262       .  A
O1497     Co1517   1.993       .  S
O1498      C1506   1.241       .  A
O1498     Co1518   1.964       .  S
O1499      C1507   1.264       .  A
O1499     Co1519   1.931       .  S
O1500      C1506   1.255       .  A
O1500     Co1517   2.011       .  S
O1501      C1507   1.275       .  A
O1501     Co1516   2.012       .  S
O1502      C1505   1.263       .  A
O1502     Co1519   1.964       .  S
O1503      C1504   1.249       .  A
O1503     Co1518   1.991       .  S
C1504      C1561   1.468       .  S
C1505      C1573   1.464       .  S
C1506      C1614   1.474       .  S
C1507      C2066   1.451       .  S
O1508      C1521   1.259       .  A
O1508     Co1516   1.972       .  S
O1509      C1522   1.271       .  A
O1509     Co1517   1.877       .  S
O1510      C1523   1.292       .  A
O1510     Co1518   2.075       .  S
O1511      C1524   1.263       .  A
O1511     Co1519   1.997       .  S
O1512      C1524   1.263       .  A
O1512     Co1517   2.005       .  S
O1513      C1523   1.269       .  A
O1513     Co1516   1.874       .  S
O1514      C1521   1.265       .  A
O1514     Co1519   2.015       .  S
O1515      C1522   1.305       .  A
O1515     Co1518   2.052       .  S
Co1516     O1520   1.949       .  S
Co1517     O1520   1.915       .  S
Co1518     O1520   2.199       .  S
Co1519     O1520   2.078       .  S
C1521      C1577   1.489       .  S
C1522      C1530   1.446       .  S
C1523      C1618   1.456       .  S
C1524      C1558   1.473       .  S
C1525      C1526   1.348       .  D
C1525      H1527   1.087       .  S
C1526      C2047   1.484       .  S
C1526      H1528   1.087       .  S
C1529      C1530   1.328       .  D
C1529      H1531   1.090       .  S
C1530      H1532   1.089       .  S
C1533      C1534   1.348       .  D
C1533      H1535   1.088       .  S
C1534      H1536   1.085       .  S
C1537      H1539   1.087       .  S
C1538      H1540   1.087       .  S
C1541      C1812   1.329       .  D
C1541      H1543   1.088       .  S
C1542      C1811   1.345       .  D
C1542      H1544   1.088       .  S
C1545      C1546   1.352       .  D
C1545      H1547   1.086       .  S
C1546      C1975   1.472       .  S
C1546      H2088   1.088   1_565  S
H1548      C2086   1.089       .  S
C1549      C1550   1.341       .  D
C1549      H1551   1.086       .  S
C1550      H1552   1.087       .  S
C1553      C1554   1.354       .  D
C1553      H1555   1.087       .  S
C1554      H1556   1.086       .  S
C1557      C1558   1.345       .  D
C1557      H1559   1.087       .  S
C1558      H1560   1.086       .  S
C1561      C1562   1.340       .  D
C1561      H1563   1.087       .  S
C1562      H1564   1.086       .  S
C1565      H1567   1.087       .  S
C1566      H1568   1.086       .  S
C1569      H1571   1.087       .  S
C1570      H1572   1.088       .  S
C1573      C1844   1.340       .  D
C1573      H1575   1.086       .  S
C1574      C1843   1.328   1_556  D
C1574      H1576   1.088   1_556  S
C1577      C2118   1.355       .  D
C1577      H1579   1.085       .  S
C1578      C2117   1.344       .  D
C1578      H1580   1.086       .  S
C1581      C1582   1.322       .  D
C1581      H1583   1.088       .  S
C1582      H1584   1.088       .  S
C1585      C1586   1.339       .  D
C1585      H1587   1.088       .  S
C1586      H1588   1.086       .  S
C1589      H1591   1.086       .  S
C1590      H1592   1.086       .  S
C1593      H1595   1.088       .  S
C1594      H1596   1.087   1_655  S
C1597      C1598   1.337       .  D
C1597      H1599   1.087       .  S
C1598      C1929   1.454       .  S
C1598      H1600   1.087       .  S
C1601      C1602   1.331       .  D
C1601      H1603   1.087       .  S
C1602      H1604   1.088       .  S
C1605      C1606   1.349       .  D
C1605      H1607   1.086       .  S
C1606      C1987   1.491       .  S
C1606      H1608   1.087       .  S
C1609      C1610   1.345       .  D
C1609      H1611   1.087       .  S
C1610      H1612   1.087       .  S
C1613      H1615   1.088       .  S
C1614      H1616   1.086       .  S
C1617      C1618   1.329       .  D
C1617      H1619   1.087       .  S
C1618      H1620   1.087       .  S
O1621      C1629   1.267       .  A
O1621     Co1641   1.881       .  S
O1622      C1630   1.256       .  A
O1622     Co1642   1.921       .  S
O1623      C1631   1.260       .  A
O1623     Co1643   2.004       .  S
O1624     Co1644   2.029   1_455  S
O1625      C1631   1.254       .  A
O1625     Co1642   1.955       .  S
O1626     Co1641   1.984       .  S
O1627      C1630   1.274       .  A
O1627     Co1644   2.025       .  S
O1628      C1629   1.293       .  A
O1628     Co1643   2.110       .  S
C1629      C1867   1.467       .  S
C1630      C1860   1.454   1_655  S
C1631      C1883   1.466       .  S
C1632      C1875   1.484       .  S
O1633      C1646   1.258       .  A
O1633     Co1641   1.965       .  S
O1634      C1647   1.279       .  A
O1634     Co1642   2.027       .  S
O1635      C1648   1.265       .  A
O1635     Co1643   1.895       .  S
O1636      C1649   1.262       .  A
O1636     Co1644   1.968       .  S
O1637      C1649   1.268       .  A
O1637     Co1642   2.007       .  S
O1638      C1648   1.294       .  A
O1638     Co1641   2.106       .  S
O1639      C1646   1.264       .  A
O1639     Co1644   1.982       .  S
O1640      C1647   1.267       .  A
O1640     Co1643   1.972       .  S
Co1641     O1645   1.976       .  S
Co1642     O1645   2.013       .  S
Co1643     O1645   2.003       .  S
Co1644     O1645   2.035       .  S
C1646      C1864   1.449       .  S
C1647      C1879   1.481       .  S
C1648      C1887   1.468       .  S
C1649      C1871   1.459       .  S
O1650      C1658   1.287       .  A
O1650     Co1670   1.965       .  S
O1651      C1659   1.271       .  A
O1651     Co1671   2.020       .  S
O1652      C1660   1.259       .  A
O1653      C1661   1.257       .  A
O1653     Co1673   1.969       .  S
O1654     Co1671   2.011       .  S
O1655      C1661   1.259       .  A
O1655     Co1670   1.992       .  S
O1656      C1659   1.252       .  A
O1656     Co1673   1.941       .  S
O1657      C1658   1.297       .  A
O1657     Co1672   1.987       .  S
C1658      C1839   1.471       .  S
C1660      C1852   1.460       .  S
C1661      C1848   1.471       .  S
O1662      C1675   1.273       .  A
O1662     Co1670   2.022       .  S
O1663      C1676   1.258       .  A
O1663     Co1671   1.965       .  S
O1664      C1677   1.247       .  A
O1664     Co1672   2.031       .  S
O1665      C1678   1.270       .  A
O1665     Co1673   2.010       .  S
O1666      C1678   1.256       .  A
O1666     Co1671   1.953       .  S
O1667      C1677   1.229       .  A
O1667     Co1670   1.952       .  S
O1668      C1675   1.269       .  A
O1668     Co1673   1.967       .  S
O1669      C1676   1.271   1_455  A
O1669     Co1672   2.018   1_455  S
Co1670     O1674   1.999       .  S
Co1671     O1674   2.018       .  S
Co1672     O1674   2.077       .  S
Co1673     O1674   2.047       .  S
C1675      C1856   1.474       .  S
C1677      C1872   1.462       .  S
C1678      C1844   1.461       .  S
O1679      C1687   1.294       .  A
O1679     Co1699   2.124       .  S
O1680      C1688   1.271       .  A
O1680     Co1700   2.037       .  S
O1681     Co1701   1.967       .  S
O1682      C1690   1.248       .  A
O1682     Co1702   1.949       .  S
O1683     Co1700   2.037   1_545  S
O1684      C1690   1.265       .  A
O1684     Co1699   2.021       .  S
O1685      C1688   1.259       .  A
O1685     Co1702   1.959       .  S
O1686      C1687   1.260       .  A
O1686     Co1701   1.874       .  S
C1688      C1811   1.485   1_565  S
C1689      C1819   1.496       .  S
C1690      C1859   1.477       .  S
O1691      C1704   1.267       .  A
O1691     Co1699   1.968       .  S
O1692      C1705   1.266       .  A
O1692     Co1700   1.996       .  S
O1693      C1706   1.295       .  A
O1693     Co1701   2.094       .  S
O1694      C1707   1.270       .  A
O1694     Co1702   2.009       .  S
O1695      C1707   1.268       .  A
O1695     Co1700   1.979       .  S
O1696      C1706   1.269       .  A
O1696     Co1699   1.912       .  S
O1697      C1704   1.287       .  A
O1697     Co1702   2.056       .  S
O1698      C1705   1.259       .  A
O1698     Co1701   1.982       .  S
Co1699     O1703   2.044       .  S
Co1700     O1703   2.065       .  S
Co1701     O1703   1.979       .  S
Co1702     O1703   2.008       .  S
C1704      C1823   1.495       .  S
C1706      C1863   1.480       .  S
C1707      C1827   1.478       .  S
O1708      C1716   1.265       .  A
O1708     Co1728   2.040       .  S
O1709      C1717   1.276       .  A
O1709     Co1729   2.032       .  S
O1710      C1718   1.257       .  A
O1710     Co1730   1.940       .  S
O1711      C1719   1.272       .  A
O1711     Co1731   1.878       .  S
O1712      C1718   1.276       .  A
O1712     Co1729   2.042       .  S
O1713      C1719   1.296       .  A
O1713     Co1728   2.100       .  S
O1714      C1717   1.271       .  A
O1714     Co1731   1.988       .  S
O1715      C1716   1.252       .  A
O1715     Co1730   1.954       .  S
C1716      C1804   1.497       .  S
C1718      C1815   1.476       .  S
C1719      C1851   1.459       .  S
O1720      C1733   1.264       .  A
O1720     Co1728   1.906       .  S
O1721      C1734   1.252       .  A
O1721     Co1729   1.949       .  S
O1722      C1735   1.281       .  A
O1722     Co1730   2.038       .  S
O1723      C1736   1.269       .  A
O1723     Co1731   1.996       .  S
O1724      C1736   1.252       .  A
O1724     Co1729   1.967       .  S
O1725      C1735   1.267       .  A
O1725     Co1728   1.960       .  S
O1726      C1733   1.294       .  A
O1726     Co1731   2.108       .  S
O1727      C1734   1.270       .  A
O1727     Co1730   2.032       .  S
Co1728     O1732   2.005       .  S
Co1729     O1732   2.026       .  S
Co1730     O1732   2.024       .  S
Co1731     O1732   2.009       .  S
C1733      C1808   1.486       .  S
C1734      C1855   1.467       .  S
C1735      C1880   1.477       .  S
C1736      C1812   1.469       .  S
O1737      C1745   1.264       .  A
O1737     Co1757   1.998       .  S
O1738      C1746   1.240       .  A
O1738     Co1758   1.931       .  S
O1739      C1747   1.259       .  A
O1739     Co1759   1.952       .  S
O1740      C1748   1.254       .  A
O1740     Co1760   2.007       .  S
O1741      C1747   1.283       .  A
O1741     Co1758   2.059       .  S
O1742      C1748   1.253       .  A
O1742     Co1757   1.995       .  S
O1743      C1746   1.259       .  A
O1743     Co1760   2.014       .  S
O1744      C1745   1.261       .  A
O1744     Co1759   1.975       .  S
C1746      C1807   1.462       .  S
C1747      C1836   1.492       .  S
C1748      C1820   1.496       .  S
O1749      C1762   1.264       .  A
O1749     Co1757   1.872       .  S
O1750      C1763   1.254       .  A
O1750     Co1758   1.976       .  S
O1751      C1764   1.262       .  A
O1751     Co1759   1.984       .  S
O1752      C1765   1.295       .  A
O1752     Co1760   2.059       .  S
O1753      C1765   1.281       .  A
O1753     Co1758   1.914       .  S
O1754      C1764   1.257       .  A
O1754     Co1757   1.986       .  S
O1755      C1762   1.305       .  A
O1755     Co1760   2.115       .  S
O1756      C1763   1.267       .  A
O1756     Co1759   2.035       .  S
Co1757     O1761   1.922       .  S
Co1758     O1761   1.950       .  S
Co1759     O1761   2.107       .  S
Co1760     O1761   2.276       .  S
C1762      C1803   1.475       .  S
C1763      C1824   1.491       .  S
C1764      C1840   1.470       .  S
C1765      C1799   1.483       .  S
O1766      C1774   1.233       .  A
O1766     Co1786   1.983       .  S
O1767      C1775   1.251       .  A
O1767     Co1787   1.930       .  S
O1768      C1776   1.274       .  A
O1768     Co1788   2.040       .  S
O1769      C1777   1.266       .  A
O1769     Co1789   1.959   1_545  S
O1770      C1776   1.251       .  A
O1770     Co1787   1.944       .  S
O1771      C1777   1.260   1_565  A
O1771     Co1786   1.973       .  S
O1772      C1775   1.268       .  A
O1772     Co1789   2.007       .  S
O1773      C1774   1.255       .  A
O1773     Co1788   2.077       .  S
C1774      C1831   1.504       .  S
C1775      C1843   1.446   1_565  S
C1776      C1884   1.481       .  S
O1778      C1791   1.272       .  A
O1778     Co1786   2.012       .  S
O1779      C1792   1.272       .  A
O1779     Co1787   1.994       .  S
O1780      C1793   1.294       .  A
O1780     Co1788   1.985       .  S
O1781      C1794   1.253       .  A
O1781     Co1789   1.948       .  S
O1782      C1794   1.272       .  A
O1782     Co1787   2.035       .  S
O1783      C1793   1.287       .  A
O1783     Co1786   1.955       .  S
O1784      C1791   1.257       .  A
O1784     Co1789   1.963       .  S
O1785      C1792   1.278       .  A
O1785     Co1788   1.999       .  S
Co1786     O1790   1.997       .  S
Co1787     O1790   2.018       .  S
Co1788     O1790   2.088       .  S
Co1789     O1790   2.047       .  S
C1791      C1847   1.503       .  S
C1792      C1800   1.477       .  S
C1793      C1888   1.454       .  S
C1794      C1828   1.483       .  S
C1795      C1796   1.341       .  D
C1795      H1797   1.086       .  S
C1796      H1798   1.088       .  S
C1799      C1800   1.337       .  D
C1799      H1801   1.086       .  S
C1800      H1802   1.088       .  S
C1803      C1804   1.352       .  D
C1803      H1805   1.087       .  S
C1804      H1806   1.085       .  S
C1807      C2078   1.334       .  D
C1807      H1809   1.088   1_554  S
C1808      C2077   1.348       .  D
C1808      H1810   1.087       .  S
C1811      H1813   1.085       .  S
C1812      H1814   1.087       .  S
C1815      C1816   1.349       .  D
C1815      H1817   1.086       .  S
C1819      C1820   1.345       .  D
C1819      H1821   1.087       .  S
C1820      H1822   1.086       .  S
C1823      C1824   1.358       .  D
C1823      H1825   1.087       .  S
C1824      H1826   1.086       .  S
C1827      C1828   1.354       .  D
C1827      H1829   1.087       .  S
C1828      H1830   1.087       .  S
C1831      C1832   1.353       .  D
C1831      H1833   1.086       .  S
C1832      H1834   1.086       .  S
C1835      C2106   1.359       .  D
C1835      H1837   1.086       .  S
C1836      C2105   1.365   1_554  D
C1836      H1838   1.086   1_554  S
C1839      H1841   1.086       .  S
C1840      H1842   1.087       .  S
C1843      H1845   1.087       .  S
C1844      H1846   1.088       .  S
C1847      H1849   1.085       .  S
C1848      H1850   1.086       .  S
C1851      C1852   1.336       .  D
C1851      H1853   1.087       .  S
C1852      H1854   1.087       .  S
C1855      C1856   1.341       .  D
C1855      H1857   1.088       .  S
C1856      H1858   1.085       .  S
C1859      H1861   1.086       .  S
C1860      H1862   1.087       .  S
C1863      H1865   1.085       .  S
C1864      H1866   1.088       .  S
C1867      C1868   1.335       .  D
C1867      H1869   1.088       .  S
C1868      H1870   1.086       .  S
C1871      C1872   1.341       .  D
C1871      H1873   1.087       .  S
C1872      H1874   1.086       .  S
C1875      C1876   1.347       .  D
C1875      H1877   1.087       .  S
C1876      H1878   1.087       .  S
C1879      C1880   1.345       .  D
C1879      H1881   1.087       .  S
C1880      H1882   1.088       .  S
C1883      C2154   1.339       .  D
C1883      H1885   1.086       .  S
C1884      C2153   1.358   1_554  D
C1884      H1886   1.086       .  S
C1887      C1888   1.341       .  D
C1887      H1889   1.087       .  S
C1888      H1890   1.085       .  S
O1891      C1899   1.270       .  A
O1891     Co1911   1.902       .  S
O1892      C1900   1.260       .  A
O1892     Co1912   1.961       .  S
O1893      C1901   1.268       .  A
O1893     Co1913   2.026       .  S
O1894     Co1914   2.029   1_455  S
O1895      C1901   1.256       .  A
O1895     Co1912   1.964       .  S
O1896     Co1911   2.006       .  S
O1897      C1900   1.270       .  A
O1897     Co1914   2.025       .  S
O1898      C1899   1.294       .  A
O1898     Co1913   2.100       .  S
C1899      C2137   1.482       .  S
C1900      C2130   1.466   1_655  S
C1901      C2153   1.478       .  S
C1902      C2145   1.485       .  S
O1903      C1916   1.263       .  A
O1903     Co1911   2.001       .  S
O1904      C1917   1.278       .  A
O1904     Co1912   2.038       .  S
O1905      C1918   1.265       .  A
O1905     Co1913   1.898       .  S
O1906      C1919   1.261       .  A
O1906     Co1914   1.959       .  S
O1907      C1919   1.269       .  A
O1907     Co1912   2.008       .  S
O1908      C1918   1.301       .  A
O1908     Co1911   2.126       .  S
O1909      C1916   1.261       .  A
O1909     Co1914   1.987       .  S
O1910      C1917   1.269       .  A
O1910     Co1913   1.982       .  S
Co1911     O1915   2.025       .  S
Co1912     O1915   2.056       .  S
Co1913     O1915   2.015       .  S
Co1914     O1915   2.056       .  S
C1916      C2134   1.484       .  S
C1917      C2149   1.491       .  S
C1918      C2157   1.486       .  S
C1919      C2141   1.457       .  S
O1920      C1928   1.281       .  A
O1920     Co1940   1.929       .  S
O1921      C1929   1.250       .  A
O1921     Co1941   1.964       .  S
O1922      C1930   1.252       .  A
O1923      C1931   1.262       .  A
O1923     Co1943   2.031       .  S
O1924     Co1941   1.903       .  S
O1925      C1931   1.255       .  A
O1925     Co1940   1.987       .  S
O1926      C1929   1.269       .  A
O1926     Co1943   2.026       .  S
O1927      C1928   1.285       .  A
O1927     Co1942   2.031       .  S
C1928      C2109   1.466       .  S
C1930      C2122   1.476       .  S
C1931      C2118   1.483       .  S
O1932      C1945   1.279       .  A
O1932     Co1940   2.037       .  S
O1933      C1946   1.251       .  A
O1933     Co1941   1.970       .  S
O1934      C1947   1.254       .  A
O1934     Co1942   2.009       .  S
O1935      C1948   1.256       .  A
O1935     Co1943   1.978       .  S
O1936      C1948   1.266       .  A
O1936     Co1941   1.995       .  S
O1937      C1947   1.239       .  A
O1937     Co1940   1.943       .  S
O1938      C1945   1.267       .  A
O1938     Co1943   1.963       .  S
O1939      C1946   1.253       .  A
O1939     Co1942   1.986       .  S
Co1940     O1944   1.930       .  S
Co1941     O1944   1.921       .  S
Co1942     O1944   2.250       .  S
Co1943     O1944   2.102       .  S
C1945      C2126   1.488       .  S
C1947      C2142   1.467       .  S
C1948      C2114   1.474   1_556  S
O1949      C1957   1.293       .  A
O1949     Co1969   2.113       .  S
O1950      C1958   1.263       .  A
O1950     Co1970   2.011   1_545  S
O1951     Co1971   1.967       .  S
O1952      C1960   1.251       .  A
O1952     Co1972   1.959       .  S
O1953     Co1970   2.070   1_545  S
O1954      C1960   1.270       .  A
O1954     Co1969   2.025       .  S
O1955      C1958   1.257   1_565  A
O1955     Co1972   1.954       .  S
O1956      C1957   1.259       .  A
O1956     Co1971   1.879       .  S
C1958      C2081   1.463       .  S
C1959      C2089   1.492       .  S
C1960      C2129   1.476       .  S
O1961      C1974   1.271       .  A
O1961     Co1969   1.985       .  S
O1962      C1975   1.249       .  A
O1962     Co1970   1.971       .  S
O1963      C1976   1.292       .  A
O1963     Co1971   2.076       .  S
O1964      C1977   1.275       .  A
O1964     Co1972   2.022       .  S
O1965      C1977   1.259       .  A
O1965     Co1970   1.955       .  S
O1966      C1976   1.272       .  A
O1966     Co1969   1.926       .  S
O1967      C1974   1.278       .  A
O1967     Co1972   2.029       .  S
O1968      C1975   1.260       .  A
O1968     Co1971   2.011       .  S
Co1969     O1973   2.059       .  S
Co1970     O1973   2.073       .  S
Co1971     O1973   2.009       .  S
Co1972     O1973   2.031       .  S
C1974      C2093   1.492       .  S
C1976      C2133   1.487       .  S
C1977      C2097   1.475       .  S
O1978      C1986   1.266       .  A
O1978     Co1998   2.034       .  S
O1979      C1987   1.285       .  A
O1979     Co1999   2.059       .  S
O1980      C1988   1.255       .  A
O1980     Co2000   1.939       .  S
O1981      C1989   1.256       .  A
O1981     Co2001   1.894       .  S
O1982      C1988   1.267       .  A
O1982     Co1999   2.023       .  S
O1983      C1989   1.299       .  A
O1983     Co1998   2.122       .  S
O1984      C1987   1.269       .  A
O1984     Co2001   1.972       .  S
O1985      C1986   1.256       .  A
O1985     Co2000   1.968       .  S
C1986      C2074   1.492       .  S
C1988      C2085   1.469       .  S
C1989      C2121   1.472       .  S
O1990      C2003   1.271       .  A
O1990     Co1998   1.897       .  S
O1991      C2004   1.263       .  A
O1991     Co1999   1.958       .  S
O1992      C2005   1.278       .  A
O1992     Co2000   2.035       .  S
O1993      C2006   1.250       .  A
O1993     Co2001   1.968       .  S
O1994      C2006   1.258       .  A
O1994     Co1999   1.996       .  S
O1995      C2005   1.268       .  A
O1995     Co1998   1.982       .  S
O1996      C2003   1.289       .  A
O1996     Co2001   2.082       .  S
O1997      C2004   1.276       .  A
O1997     Co2000   2.037       .  S
Co1998     O2002   2.025       .  S
Co1999     O2002   2.051       .  S
Co2000     O2002   2.024       .  S
Co2001     O2002   1.987       .  S
C2003      C2078   1.464   1_556  S
C2004      C2125   1.476       .  S
C2005      C2150   1.490       .  S
C2006      C2082   1.462   1_556  S
O2007      C2015   1.270       .  A
O2007     Co2027   1.883       .  S
O2008      C2016   1.261       .  A
O2008     Co2028   1.982       .  S
O2009      C2017   1.287       .  A
O2009     Co2029   2.035       .  S
O2010      C2018   1.259       .  A
O2010     Co2030   1.985       .  S
O2011      C2017   1.274       .  A
O2011     Co2028   1.924       .  S
O2012      C2018   1.272       .  A
O2012     Co2027   2.019       .  S
O2013      C2016   1.275       .  A
O2013     Co2030   2.048       .  S
O2014      C2015   1.299       .  A
O2014     Co2029   2.087       .  S
C2016      C2077   1.481       .  S
C2017      C2106   1.475       .  S
C2018      C2090   1.487       .  S
O2019      C2032   1.270       .  A
O2019     Co2027   1.992       .  S
O2020      C2033   1.247       .  A
O2020     Co2028   1.979       .  S
O2021      C2034   1.237       .  A
O2021     Co2029   1.946       .  S
O2022      C2035   1.260       .  A
O2022     Co2030   1.965       .  S
O2023      C2035   1.273       .  A
O2023     Co2028   2.007       .  S
O2024      C2034   1.249       .  A
O2024     Co2027   1.969       .  S
O2025      C2032   1.275       .  A
O2025     Co2030   2.017       .  S
O2026      C2033   1.258       .  A
O2026     Co2029   2.022       .  S
Co2027     O2031   1.938       .  S
Co2028     O2031   1.945       .  S
Co2029     O2031   2.255       .  S
Co2030     O2031   2.095       .  S
C2032      C2073   1.483       .  S
C2033      C2094   1.496       .  S
C2034      C2110   1.449       .  S
C2035      C2069   1.465       .  S
O2036      C2044   1.274       .  A
O2036     Co2056   2.004       .  S
O2037      C2045   1.261       .  A
O2037     Co2057   2.014       .  S
O2038      C2046   1.261       .  A
O2038     Co2058   1.887       .  S
O2039      C2047   1.264       .  A
O2039     Co2059   1.968   1_545  S
O2040      C2046   1.293       .  A
O2040     Co2057   2.083       .  S
O2041      C2047   1.275   1_565  A
O2041     Co2056   2.032       .  S
O2042      C2045   1.258       .  A
O2042     Co2059   1.982       .  S
O2043      C2044   1.268       .  A
O2043     Co2058   1.973       .  S
C2044      C2101   1.455       .  S
C2045      C2113   1.491       .  S
C2046      C2154   1.453       .  S
O2048      C2061   1.251       .  A
O2048     Co2056   1.954       .  S
O2049      C2062   1.261       .  A
O2049     Co2057   1.894       .  S
O2050      C2063   1.257       .  A
O2050     Co2058   2.011       .  S
O2051      C2064   1.280       .  A
O2051     Co2059   2.036       .  S
O2052      C2064   1.260       .  A
O2052     Co2057   1.963       .  S
O2053      C2063   1.256       .  A
O2053     Co2056   1.978       .  S
O2054      C2061   1.271       .  A
O2054     Co2059   2.028       .  S
O2055      C2062   1.297       .  A
O2055     Co2058   2.096       .  S
Co2056     O2060   2.035       .  S
Co2057     O2060   2.019       .  S
Co2058     O2060   2.017       .  S
Co2059     O2060   2.051       .  S
C2061      C2117   1.466   1_565  S
C2062      C2070   1.460       .  S
C2063      C2158   1.488       .  S
C2064      C2098   1.471       .  S
C2065      C2066   1.339       .  D
C2065      H2067   1.088       .  S
C2066      H2068   1.089       .  S
C2069      C2070   1.335       .  D
C2069      H2071   1.088       .  S
C2070      H2072   1.087       .  S
C2073      C2074   1.349       .  D
C2073      H2075   1.088       .  S
C2074      H2076   1.085       .  S
C2077      H2079   1.087       .  S
C2078      H2080   1.087       .  S
C2081      H2083   1.086       .  S
C2082      H2084   1.089       .  S
C2085      C2086   1.342       .  D
C2085      H2087   1.086       .  S
C2089      C2090   1.338       .  D
C2089      H2091   1.086       .  S
C2090      H2092   1.087       .  S
C2093      C2094   1.353       .  D
C2093      H2095   1.086       .  S
C2094      H2096   1.086       .  S
C2097      C2098   1.334       .  D
C2097      H2099   1.087       .  S
C2098      H2100   1.087       .  S
C2101      C2102   1.343       .  D
C2101      H2103   1.087       .  S
C2102      H2104   1.086       .  S
C2105      H2107   1.087   1_556  S
C2106      H2108   1.086       .  S
C2109      H2111   1.088   1_655  S
C2110      H2112   1.087       .  S
C2113      H2115   1.085       .  S
C2114      H2116   1.087       .  S
C2117      H2119   1.086   1_545  S
C2118      H2120   1.085       .  S
C2121      C2122   1.357       .  D
C2121      H2123   1.087       .  S
C2122      H2124   1.086       .  S
C2125      C2126   1.350       .  D
C2125      H2127   1.087       .  S
C2126      H2128   1.086       .  S
C2129      H2131   1.086       .  S
C2130      H2132   1.087       .  S
C2133      H2135   1.085       .  S
C2134      H2136   1.087   1_655  S
C2137      C2138   1.342       .  D
C2137      H2139   1.087       .  S
C2138      H2140   1.086       .  S
C2141      C2142   1.342       .  D
C2141      H2143   1.086       .  S
C2142      H2144   1.087       .  S
C2145      C2146   1.352       .  D
C2145      H2147   1.087       .  S
C2146      H2148   1.086       .  S
C2149      C2150   1.352       .  D
C2149      H2151   1.087       .  S
C2150      H2152   1.087       .  S
C2153      H2155   1.087       .  S
C2154      H2156   1.088       .  S
C2157      C2158   1.345       .  D
C2157      H2159   1.087       .  S
C2158      H2160   1.087       .  S
