geometry optimzed in LAMMPS
_audit_creation_date              2020-11-30 
_audit_creation_method            'lammps2cif' 
_symmetry_space_group_name_H-M    'P1' 
_symmetry_Int_Tables_number       1 
_symmetry_cell_setting            triclinic 
loop_ 
_symmetry_equiv_pos_as_xyz 
  x,y,z 
_cell_length_a                    53.27175851609352 
_cell_length_b                    25.89282345898022 
_cell_length_c                    30.6120582256268 
_cell_angle_alpha                 91.52523262938959 
_cell_angle_beta                  105.42515385351638 
_cell_angle_gamma                 89.86336963265092 
loop_ 
_atom_site_label 
_atom_site_type_symbol 
_atom_site_fract_x 
_atom_site_fract_y 
_atom_site_fract_z 
_atom_site_charge 
O1          O  0.16786657  0.78082008  0.35740817    -0.75160
O2          O  0.18130429  0.77126582  0.29483026    -0.54070
C3          C  0.17285967  0.79964429  0.32244689     0.78570
O4          O  0.17660801  0.63271706  0.49984128    -0.59760
O5          O  0.13781557  0.59062833  0.47476073    -0.52790
C6          C  0.15669117  0.60916758  0.50687618     0.70580
O7          O  0.22415454  0.71839560  0.42042895    -0.74320
O8          O  0.22418072  0.72150006  0.34635059    -0.54880
C9          C  0.23351465  0.73329817  0.38818274     0.76590
O10         O  0.10029948  0.71708134  0.40332895    -0.59460
O11         O  0.09267747  0.63110597  0.40945890    -0.52580
C12         C  0.08784504  0.67891866  0.41371640     0.73180
Zr13       Zr  0.12990730  0.72708627  0.35588097     2.54710
O14         O  0.12194164  0.81363336  0.38225887    -0.80030
O15         O  0.09150018  0.75311840  0.29678357    -0.93450
Zr16       Zr  0.19199110  0.65993698  0.43447696     2.64680
O17         O  0.20212149  0.72905330  0.49207176    -0.98400
O18         O  0.23014857  0.61240647  0.47531866    -0.80460
O19         O  0.17529677  0.71484788  0.37360543    -0.83820
O20         O  0.14629949  0.67196273  0.41757091    -2.18530
O21         O  0.08268222  0.57155931  0.27932631    -0.67210
O22         O  0.09256317  0.53691731  0.34894965    -0.51770
C23         C  0.08122244  0.53540974  0.30630957     0.71560
O24         O  0.21100240  0.54982373  0.29340174    -0.60120
O25         O  0.21634302  0.63396457  0.27692126    -0.52090
C26         C  0.22048004  0.58542936  0.27369329     0.73360
O27         O  0.17722240  0.49147705  0.40974613    -0.71510
O28         O  0.13703795  0.50373796  0.42095105    -0.50190
C29         C  0.15946213  0.48271439  0.43040893     0.74750
O30         O  0.13184348  0.65030730  0.20316630    -0.66840
O31         O  0.17191008  0.68734298  0.22488499    -0.54040
C32         C  0.15108704  0.67369983  0.19438602     0.73130
Zr33       Zr  0.12159144  0.61041481  0.26727396     2.77540
O34         O  0.12706423  0.53946445  0.21684208    -0.97590
O35         O  0.08149893  0.63677017  0.21345818    -0.78410
Zr36       Zr  0.18404778  0.54201397  0.34656957     2.70070
O37         O  0.17154488  0.45985691  0.30613540    -0.79660
O38         O  0.22657262  0.50491825  0.38109431    -0.98740
Zr39       Zr  0.18507877  0.67986312  0.30709941     2.21500
Zr40       Zr  0.12841247  0.58886144  0.39235233     2.11130
O41         O  0.13824833  0.55109730  0.32651576    -2.47430
O42         O  0.16693127  0.59715567  0.28492109    -0.79450
O43         O  0.11081093  0.64547771  0.33225752    -0.71650
O44         O  0.20325774  0.62441541  0.36916246    -2.32600
O45         O  0.13921466  0.69415349  0.28869302    -2.28810
O46         O  0.17410143  0.57822827  0.41151954    -0.73410
H47         H  0.14192768  0.68472813  0.44451993     0.78590
H48         H  0.22194340  0.62218611  0.37468242     0.79680
H49         H  0.13079195  0.51704626  0.31881125     0.81900
H50         H  0.13403657  0.71847632  0.26463428     0.79510
H51         H  0.24361711  0.63931142  0.48697821     0.42550
H52         H  0.23939623  0.52881842  0.37418880     0.41520
H53         H  0.17204570  0.46636807  0.27465161     0.41190
H54         H  0.12729601  0.50769766  0.23414862     0.39130
H55         H  0.07517739  0.66621043  0.22884861     0.42260
H56         H  0.09614730  0.75518205  0.26770018     0.37040
H57         H  0.13536197  0.81870545  0.41142962     0.43160
H58         H  0.18522645  0.73781087  0.49809249     0.39580
H59         H  0.11076040  0.53791546  0.19209275     0.44490
H60         H  0.08751339  0.78892429  0.30472018     0.43220
H61         H  0.21221189  0.71222512  0.51992257     0.43350
H62         H  0.22884561  0.51017782  0.41407335     0.43710
O63         O  0.08739386  0.68754465  0.88913991    -0.75160
O64         O  0.11526275  0.74813243  0.92937403    -0.54070
C65         C  0.09270819  0.72526209  0.91744067     0.78570
O66         O  0.14953020  0.49975445  0.90352788    -0.59760
O67         O  0.16670968  0.47925782  0.84608213    -0.52790
C68         C  0.16361343  0.47114030  0.88599279     0.70580
O69         O  0.15237706  0.63576419  0.99183052    -0.74320
O70         O  0.16098694  0.72109403  0.98753712    -0.54880
C71         C  0.15563885  0.68220071  0.00860371     0.76590
O72         O  0.08111039  0.56499514  0.78978567    -0.59460
O73         O  0.11270526  0.56481510  0.75564167    -0.52580
C74         C  0.09351116  0.54275665  0.76453837     0.73180
Zr75       Zr  0.10220988  0.63480183  0.83793333     2.54710
O76         O  0.07270721  0.58569018  0.86977776    -0.80030
O77         O  0.06736888  0.67943204  0.78441753    -0.93450
Zr78       Zr  0.16334524  0.58509201  0.93097336     2.64680
O79         O  0.15570875  0.53372346  0.99190327    -0.98400
O80         O  0.20661296  0.56691974  0.97892295    -0.80460
O81         O  0.13177315  0.64940264  0.91046769    -0.83820
O82         O  0.13249355  0.56777144  0.85829907    -2.18530
O83         O  0.15000629  0.65378913  0.70853305    -0.67210
O84         O  0.15563387  0.56739458  0.72211020    -0.51770
C85         C  0.15314030  0.60683158  0.69602228     0.71560
O86         O  0.20993177  0.74557977  0.87370342    -0.60120
O87         O  0.19928039  0.76824467  0.93635168    -0.52090
C88         C  0.21608444  0.76723937  0.91276236     0.73360
O89         O  0.22655136  0.59522317  0.81674385    -0.71510
O90         O  0.19615304  0.53393202  0.78541935    -0.50190
C91         C  0.21840340  0.55545256  0.79057532     0.74750
O92         O  0.14026551  0.78965843  0.79566139    -0.66840
O93         O  0.14624935  0.80497953  0.87186552    -0.54040
C94         C  0.14058196  0.81822705  0.83056181     0.73130
Zr95       Zr  0.14825119  0.70233133  0.77742785     2.77540
O96         O  0.17659916  0.75458762  0.74560784    -0.97590
O97         O  0.10924767  0.72439095  0.71873924    -0.78410
Zr98       Zr  0.21028948  0.65286968  0.86823266     2.70070
O99         O  0.24990338  0.68588391  0.85327336    -0.79660
O100        O  0.24591808  0.63025170  0.93348511    -0.98740
Zr101      Zr  0.15592509  0.72524704  0.90701470     2.21500
Zr102      Zr  0.15709682  0.56113423  0.80314412     2.11130
O103        O  0.18029070  0.63772178  0.79740821    -2.47430
O104        O  0.17836654  0.71848495  0.84850363    -0.79450
O105        O  0.12546034  0.62712089  0.78235951    -0.71650
O106        O  0.18825173  0.65947978  0.92732776    -2.32600
O107        O  0.12506569  0.71063644  0.83413625    -2.28810
O108        O  0.18738019  0.57719966  0.87540545    -0.73410
H109        H  0.12030046  0.53953265  0.85463911     0.78590
H110        H  0.19993665  0.66805985  0.95655519     0.79680
H111        H  0.18891826  0.63630166  0.77344148     0.81900
H112        H  0.11200729  0.73729887  0.82762570     0.79510
H113        H  0.20707633  0.58392874  0.00848436     0.42550
H114        H  0.23951376  0.63506465  0.96076074     0.41520
H115        H  0.24384844  0.70326024  0.82391309     0.41190
H116        H  0.18998632  0.73026113  0.74056256     0.39130
H117        H  0.09756385  0.69412355  0.71612477     0.42260
H118        H  0.06526167  0.71260373  0.79986624     0.37040
H119        H  0.08397244  0.57206419  0.89823708     0.43160
H120        H  0.13786194  0.51956533  0.98017123     0.39580
H121        H  0.16590406  0.76245697  0.71477739     0.44490
H122        H  0.05145736  0.65950267  0.78397125     0.43220
H123        H  0.16730077  0.50344624  0.99409024     0.43350
H124        H  0.25913838  0.65783370  0.93643158     0.43710
O125        O  0.99214772  0.84614299  0.05091700    -0.75160
O126        O  0.99677583  0.89409232  0.99548626    -0.54070
C127        C  0.00489313  0.88014271  0.03682872     0.78570
O128        O  0.41469788  0.67645251  0.02948775    -0.59760
O129        O  0.37931024  0.71995832  0.04104633    -0.52790
C130        C  0.39236054  0.67680303  0.03744560     0.70580
O131        O  0.48623144  0.73357470  0.99475293    -0.74320
O132        O  0.99035037  0.79887932  0.94842328    -0.54880
C133        C  0.99868397  0.75885177  0.97099350     0.76590
O134        O  0.44011721  0.84971365  0.13753935    -0.59460
O135        O  0.39813079  0.82180903  0.12133540    -0.52580
C136        C  0.42028075  0.83413719  0.14962898     0.73180
Zr137      Zr  0.45339464  0.87302754  0.07149395     2.54710
O138        O  0.48941328  0.87795273  0.13982249    -0.80030
O139        O  0.45311953  0.96259884  0.09830741    -0.93450
Zr140      Zr  0.44217161  0.73818202  0.00852856     2.64680
O141        O  0.46981314  0.69789162  0.07528670    -0.98400
O142        O  0.44010039  0.66256961  0.95864509    -0.80460
O143        O  0.46503083  0.81532698  0.01933380    -0.83820
O144        O  0.42992201  0.79406737  0.06314790    -2.18530
O145        O  0.36376944  0.95194211  0.98620595    -0.67210
O146        O  0.37032610  0.91422552  0.05341508    -0.51770
C147        C  0.36353967  0.95456597  0.02731637     0.71560
O148        O  0.40211046  0.80692461  0.84774740    -0.60120
O149        O  0.44452600  0.83307306  0.86806893    -0.52090
C150        C  0.42353968  0.81867333  0.83844857     0.73360
O151        O  0.34012030  0.79151243  0.92506061    -0.71510
O152        O  0.34018472  0.80471724  0.99940310    -0.50190
C153        C  0.32836562  0.79592035  0.95736329     0.74750
O154        O  0.42747360  0.98310393  0.91836149    -0.66840
O155        O  0.46001644  0.93114053  0.90793874    -0.54040
C156        C  0.44695188  0.97301545  0.90152480     0.73130
Zr157      Zr  0.40318954  0.93761780  0.96615755     2.77540
O158        O  0.37194048  0.97043112  0.89948790    -0.97590
O159        O  0.41086667  0.02359019  0.00131995    -0.78410
Zr160      Zr  0.38523049  0.79793830  0.91342113     2.70070
O161        O  0.35199389  0.81512582  0.84379407    -0.79660
O162        O  0.38028248  0.70611521  0.89389191    -0.98740
Zr163      Zr  0.45571522  0.85521298  0.94817969     2.21500
Zr164      Zr  0.38543190  0.82067211  0.03702008     2.11130
O165        O  0.37719360  0.86141888  0.96402499    -2.47430
O166        O  0.41098043  0.87436965  0.91607971    -0.79450
O167        O  0.41033482  0.89830298  0.03949977    -0.71650
O168        O  0.43075384  0.77667389  0.93714502    -2.32600
O169        O  0.44660653  0.91656221  0.00088200    -2.28810
O170        O  0.39708806  0.76084201  0.98488741    -0.73410
H171        H  0.43299312  0.77432306  0.09031242     0.78590
H172        H  0.43550202  0.75394967  0.91512822     0.79680
H173        H  0.35924918  0.87136139  0.95298053     0.81900
H174        H  0.45731260  0.94681741  0.00316846     0.79510
H175        H  0.45320527  0.63863900  0.97637828     0.42550
H176        H  0.36615711  0.69454181  0.90687914     0.41520
H177        H  0.35346568  0.85270838  0.83970030     0.41190
H178        H  0.35701263  0.94612732  0.89346040     0.39130
H179        H  0.41312305  0.01816923  0.03395524     0.42260
H180        H  0.45271242  0.98449233  0.07227271     0.37040
H181        H  0.99564520  0.84200465  0.14463468     0.43160
H182        H  0.45986363  0.69974227  0.09835023     0.39580
H183        H  0.36534470  0.00287339  0.91015455     0.44490
H184        H  0.47020246  0.96938431  0.12007477     0.43220
H185        H  0.46975225  0.66073580  0.06672744     0.43350
H186        H  0.37245853  0.70475234  0.86069711     0.43710
O187        O  0.00101181  0.84121604  0.56938519    -0.75160
O188        O  0.00699489  0.89078885  0.51574693    -0.54070
C189        C  0.01293395  0.87852153  0.55800801     0.78570
O190        O  0.41239306  0.67630652  0.52065159    -0.59760
O191        O  0.37998909  0.72349392  0.53862775    -0.52790
C192        C  0.39076434  0.67876910  0.53112120     0.70580
O193        O  0.48451481  0.71433551  0.48660117    -0.74320
O194        O  0.99853667  0.78570048  0.45696419    -0.54880
C195        C  0.00011621  0.73855723  0.46863397     0.76590
O196        O  0.44182913  0.83141516  0.64017606    -0.59460
O197        O  0.39779981  0.82371304  0.61573030    -0.52580
C198        C  0.41939353  0.82533435  0.64736154     0.73180
Zr199      Zr  0.45876496  0.86055266  0.57978203     2.54710
O200        O  0.49163692  0.86958903  0.65205433    -0.80030
O201        O  0.44693212  0.94375079  0.60509605    -0.93450
Zr202      Zr  0.44482008  0.73325961  0.50877923     2.64680
O203        O  0.47072806  0.69751605  0.57929205    -0.98400
O204        O  0.44178166  0.65147984  0.46656820    -0.80460
O205        O  0.47192200  0.80578624  0.52668769    -0.83820
O206        O  0.43219504  0.78620721  0.56360516    -2.18530
O207        O  0.37359411  0.95656414  0.48328715    -0.67210
O208        O  0.37358663  0.91720851  0.54737337    -0.51770
C209        C  0.36998787  0.95901949  0.52222438     0.71560
O210        O  0.41721704  0.80600922  0.35070997    -0.60120
O211        O  0.45949362  0.83393209  0.37512397    -0.52090
C212        C  0.43924051  0.81732983  0.34381936     0.73360
O213        O  0.35186130  0.79206354  0.41721894    -0.71510
O214        O  0.34752704  0.81236381  0.48785332    -0.50190
C215        C  0.33840194  0.79865123  0.44641524     0.74750
O216        O  0.43943987  0.98318155  0.43098269    -0.66840
O217        O  0.47271246  0.93175335  0.42242885    -0.54040
C218        C  0.45911512  0.97328578  0.41562531     0.73130
Zr219      Zr  0.41563027  0.93796956  0.47573869     2.77540
O220        O  0.39073506  0.98760867  0.41200658    -0.97590
O221        O  0.43348384  0.01305191  0.52364544    -0.78410
Zr222      Zr  0.39656892  0.80525740  0.41158409     2.70070
O223        O  0.36742400  0.84757913  0.34772867    -0.79660
O224        O  0.38686080  0.71870807  0.37851499    -0.98740
Zr225      Zr  0.46817219  0.85175320  0.45846574     2.21500
Zr226      Zr  0.39000771  0.82262647  0.53329161     2.11130
O227        O  0.38692782  0.86556737  0.46304985    -2.47430
O228        O  0.42493327  0.87816621  0.42384286    -0.79450
O229        O  0.41793741  0.89596058  0.54573589    -0.71650
O230        O  0.44015757  0.77733561  0.44099078    -2.32600
O231        O  0.45724394  0.90871583  0.51274626    -2.28810
O232        O  0.40168311  0.76365254  0.48026130    -0.73410
H233        H  0.43259561  0.76366961  0.58838360     0.78590
H234        H  0.44515030  0.75451357  0.41930312     0.79680
H235        H  0.36945529  0.87690133  0.44917545     0.81900
H236        H  0.46832962  0.93869896  0.51831673     0.79510
H237        H  0.43113709  0.65926935  0.43568838     0.42550
H238        H  0.38113011  0.69933481  0.40163826     0.41520
H239        H  0.37524524  0.88221144  0.34760850     0.41190
H240        H  0.37448368  0.96768196  0.39918036     0.39130
H241        H  0.42533441  0.01281875  0.54913829     0.42260
H242        H  0.45766966  0.96820697  0.59393497     0.37040
H243        H  0.99795180  0.83395312  0.65938107     0.43160
H244        H  0.45853859  0.67490686  0.58945812     0.39580
H245        H  0.38517020  0.01968931  0.42492069     0.44490
H246        H  0.45376806  0.94366110  0.63845941     0.43220
H247        H  0.48285860  0.67332658  0.56988252     0.43350
H248        H  0.37083732  0.72284839  0.35357008     0.43710
O249        O  0.28958281  0.49100165  0.13903121    -0.75160
O250        O  0.26349331  0.43484918  0.16253138    -0.54070
C251        C  0.27197296  0.48018859  0.15927518     0.78570
O252        O  0.29210650  0.31395301  0.94851593    -0.59760
O253        O  0.33628861  0.31125059  0.97133749    -0.52790
C254        C  0.31445386  0.30971130  0.94061703     0.70580
O255        O  0.23102107  0.33594281  0.01945725    -0.74320
O256        O  0.23518855  0.38775289  0.08128149    -0.54880
C257        C  0.22336035  0.37321393  0.04003388     0.76590
O258        O  0.34138206  0.47711438  0.05662584    -0.59460
O259        O  0.36505685  0.41053528  0.03712251    -0.52580
C260        C  0.35938766  0.46055147  0.04053734     0.73180
Zr261      Zr  0.31524235  0.44098810  0.09629678     2.54710
O262        O  0.29146316  0.50807919  0.04818244    -0.80030
O263        O  0.34724224  0.49808715  0.14628925    -0.93450
Zr264      Zr  0.27436419  0.33127476  0.01211077     2.64680
O265        O  0.25894604  0.38691554  0.94805423    -0.98400
O266        O  0.24960674  0.25818376  0.97073641    -0.80460
O267        O  0.27601170  0.39658023  0.07006157    -0.83820
O268        O  0.31263015  0.38155149  0.03316682    -2.18530
O269        O  0.39552626  0.32610654  0.16281875    -0.67210
O270        O  0.39203439  0.31446697  0.08742309    -0.51770
C271        C  0.40564461  0.31890774  0.12859959     0.71560
O272        O  0.25582751  0.21840998  0.12352786    -0.60120
O273        O  0.24924181  0.29242935  0.15961305    -0.52090
C274        C  0.24154315  0.24844496  0.14230825     0.73360
O275        O  0.32844774  0.17324126  0.07758835    -0.71510
O276        O  0.35498295  0.22056887  0.04510122    -0.50190
C277        C  0.34630330  0.17650220  0.05699573     0.74750
O278        O  0.33159272  0.33595730  0.24131844    -0.66840
O279        O  0.28773305  0.35126204  0.21897774    -0.54040
C280        C  0.30924865  0.34316653  0.24933755     0.73130
Zr281      Zr  0.35067628  0.33197482  0.17734840     2.77540
O282        O  0.37032625  0.25858609  0.22199242    -0.97590
O283        O  0.37722666  0.39427086  0.23081976    -0.78410
Zr284      Zr  0.29967931  0.22909475  0.10404492     2.70070
O285        O  0.31364105  0.17264638  0.16827433    -0.79660
O286        O  0.27463389  0.16215960  0.05351907    -0.98740
Zr287      Zr  0.27502147  0.35364220  0.13661287     2.21500
Zr288      Zr  0.34649775  0.31943680  0.05308430     2.11130
O289        O  0.34206681  0.27130024  0.11717627    -2.47430
O290        O  0.30849572  0.29166789  0.16254860    -0.79450
O291        O  0.35078584  0.38122250  0.11397796    -0.71650
O292        O  0.26831661  0.29099009  0.07661548    -2.32600
O293        O  0.31639799  0.39470759  0.16060475    -2.28810
O294        O  0.30668533  0.27009638  0.03813847    -0.73410
H295        H  0.31397015  0.40017833  0.00694888     0.78590
H296        H  0.25124320  0.27561240  0.06814792     0.79680
H297        H  0.35577207  0.24607607  0.12530795     0.81900
H298        H  0.31764239  0.41772272  0.18645236     0.79510
H299        H  0.23445397  0.27386117  0.94919944     0.42550
H300        H  0.27959436  0.16517649  0.02471911     0.41520
H301        H  0.30761553  0.18999387  0.19284670     0.41190
H302        H  0.38280452  0.24389275  0.20620263     0.39130
H303        H  0.38261171  0.41978706  0.21150598     0.42260
H304        H  0.34516031  0.49260426  0.17701793     0.37040
H305        H  0.28597015  0.49165746  0.01753145     0.43160
H306        H  0.26123051  0.42245070  0.96109594     0.39580
H307        H  0.38142034  0.27429305  0.25041044     0.44490
H308        H  0.34049110  0.53333693  0.13881653     0.43220
H309        H  0.23998487  0.38043407  0.93758885     0.43350
H310        H  0.28224255  0.12903286  0.06606294     0.43710
O311        O  0.29625947  0.48096604  0.66130016    -0.75160
O312        O  0.27454227  0.41722683  0.68591279    -0.54070
C313        C  0.28066970  0.46431299  0.68369732     0.78570
O314        O  0.29055376  0.34730316  0.45011190    -0.59760
O315        O  0.33327035  0.32421342  0.46779723    -0.52790
C316        C  0.31158704  0.33512941  0.43925393     0.70580
O317        O  0.23385087  0.37810576  0.53126958    -0.74320
O318        O  0.23562344  0.37841746  0.60677630    -0.54880
C319        C  0.22401076  0.38583485  0.56471818     0.76590
O320        O  0.36419229  0.45478426  0.60174265    -0.59460
O321        O  0.36232983  0.41504282  0.53546168    -0.52580
C322        C  0.36582619  0.45747409  0.56142868     0.73180
Zr323      Zr  0.32326236  0.43863783  0.61611981     2.54710
O324        O  0.30523797  0.51018498  0.56742117    -0.80030
O325        O  0.34952404  0.49651104  0.67496584    -0.93450
Zr326      Zr  0.27487997  0.35717808  0.51766629     2.64680
O327        O  0.26332750  0.43785740  0.47838276    -0.98400
O328        O  0.24166026  0.30960609  0.46094944    -0.80460
O329        O  0.28147868  0.40309102  0.58847491    -0.83820
O330        O  0.31630710  0.39412065  0.54355041    -2.18530
O331        O  0.39420324  0.30385843  0.65582039    -0.67210
O332        O  0.39197816  0.31415846  0.58119062    -0.51770
C333        C  0.40490522  0.30720597  0.62235135     0.71560
O334        O  0.25102742  0.21723939  0.60176955    -0.60120
O335        O  0.24497531  0.28447649  0.64723428    -0.52090
C336        C  0.23717473  0.24307052  0.62427444     0.73360
O337        O  0.31575940  0.18337580  0.53377462    -0.71510
O338        O  0.35413776  0.22388704  0.53804484    -0.50190
C339        C  0.33998655  0.18141023  0.53594469     0.74750
O340        O  0.33597847  0.31048230  0.74192612    -0.66840
O341        O  0.29197026  0.32263964  0.72361178    -0.54040
C342        C  0.31421402  0.31517911  0.75220710     0.73130
Zr343      Zr  0.35086385  0.30746216  0.67384623     2.77540
O344        O  0.36383145  0.22168693  0.70220222    -0.97590
O345        O  0.38498511  0.34730014  0.73429705    -0.78410
Zr346      Zr  0.29477163  0.22861614  0.58371289     2.70070
O347        O  0.31119662  0.16020673  0.63667974    -0.79660
O348        O  0.26572281  0.16534121  0.53505952    -0.98740
Zr349      Zr  0.27852432  0.34261718  0.64353670     2.21500
Zr350      Zr  0.34591799  0.32243123  0.54942119     2.11130
O351        O  0.33891953  0.26243454  0.60454316    -2.47430
O352        O  0.30742882  0.27144358  0.65501457    -0.79450
O353        O  0.35371973  0.36915271  0.62045806    -0.71650
O354        O  0.26747121  0.30011745  0.57131862    -2.32600
O355        O  0.32126408  0.37756872  0.67014751    -2.28810
O356        O  0.30272076  0.28521315  0.52718038    -0.73410
H357        H  0.31737189  0.41762088  0.52017667     0.78590
H358        H  0.24932637  0.29090208  0.56038566     0.79680
H359        H  0.35106575  0.23420563  0.61040598     0.81900
H360        H  0.32409879  0.39477667  0.69944436     0.79510
H361        H  0.24521901  0.27287154  0.46840945     0.42550
H362        H  0.26534638  0.17425354  0.50363292     0.41520
H363        H  0.29547287  0.14039592  0.63756727     0.41190
H364        H  0.37627621  0.20940115  0.68534423     0.39130
H365        H  0.39538348  0.31799886  0.74957989     0.42260
H366        H  0.34404786  0.48928817  0.70266453     0.37040
H367        H  0.30900173  0.50251618  0.53797857     0.43160
H368        H  0.25759573  0.46078620  0.50025409     0.39580
H369        H  0.37460137  0.22789280  0.73364583     0.44490
H370        H  0.36747778  0.48283976  0.68171761     0.43220
H371        H  0.24715266  0.42945078  0.45455104     0.43350
H372        H  0.27495755  0.13190312  0.54016526     0.43710
O373        O  0.07585083  0.00629400  0.19208856    -0.75160
O374        O  0.05354230  0.98443002  0.23942123    -0.54070
C375        C  0.06022268  0.97554377  0.20248488     0.78570
O376        O  0.14550406  0.16389446  0.19962508    -0.59760
O377        O  0.12068913  0.23256580  0.16788803    -0.52790
C378        C  0.14129869  0.20329602  0.17430161     0.70580
O379        O  0.13564680  0.03170604  0.27696759    -0.74320
O380        O  0.10468963  0.00255871  0.30926302    -0.54880
C381        C  0.12588340  0.99750420  0.29739618     0.76590
O382        O  0.06758794  0.12419751  0.09706691    -0.59460
O383        O  0.07378554  0.21100515  0.10597739    -0.52580
C384        C  0.07179204  0.16829958  0.08231623     0.73180
Zr385      Zr  0.05765851  0.08662513  0.16152110     2.54710
O386        O  0.05617009  0.03041057  0.09592063    -0.80030
O387        O  0.01129214  0.09888298  0.12568941    -0.93450
Zr388      Zr  0.12597858  0.11925895  0.25053042     2.64680
O389        O  0.16021447  0.06792873  0.23142179    -0.98400
O390        O  0.16074086  0.15289123  0.31345189    -0.80460
O391        O  0.09043326  0.06114261  0.22729356    -0.83820
O392        O  0.09439434  0.14042670  0.18198228    -2.18530
O393        O  0.00746853  0.24494400  0.19773640    -0.67210
O394        O  0.03538029  0.27369517  0.15813712    -0.51770
C395        C  0.01331071  0.27459653  0.16948822     0.71560
O396        O  0.08247638  0.17023394  0.37866413    -0.60120
O397        O  0.07237064  0.08458238  0.36735876    -0.52090
C398        C  0.07646760  0.12676236  0.39177391     0.73360
O399        O  0.09342915  0.29836849  0.29791846    -0.71510
O400        O  0.08660714  0.31021339  0.22193183    -0.50190
C401        C  0.08946913  0.32680038  0.26294012     0.74750
O402        O  0.00454474  0.12257666  0.28509973    -0.66840
O403        O  0.03093514  0.05555625  0.31321607    -0.54040
C404        C  0.01008491  0.08217609  0.30868730     0.73130
Zr405      Zr  0.02401390  0.16894125  0.23477425     2.77540
O406        O  0.01594112  0.21460932  0.30044589    -0.97590
O407        O  0.48184896  0.15044436  0.18146370    -0.78410
Zr408      Zr  0.09180683  0.20770806  0.31421055     2.70070
O409        O  0.06570049  0.24656733  0.36055344    -0.79660
O410        O  0.13608737  0.22857685  0.35772971    -0.98740
Zr411      Zr  0.07000028  0.06303723  0.28718408     2.21500
Zr412      Zr  0.07796795  0.22526036  0.18753103     2.11130
O413        O  0.05822204  0.23025677  0.25026880    -2.47430
O414        O  0.06764948  0.14691682  0.26092105    -0.79450
O415        O  0.04093097  0.16929330  0.17029197    -0.71650
O416        O  0.10676377  0.12105492  0.31240688    -2.32600
O417        O  0.03587152  0.08295517  0.22125073    -2.28810
O418        O  0.11234437  0.20685378  0.25541105    -0.73410
H419        H  0.10321628  0.13690062  0.15844951     0.78590
H420        H  0.11874723  0.11113136  0.34054405     0.79680
H421        H  0.05104458  0.26379893  0.25401302     0.81900
H422        H  0.02129557  0.05927856  0.21525650     0.79510
H423        H  0.16955484  0.12170330  0.32816484     0.42550
H424        H  0.14100110  0.25926959  0.34318255     0.41520
H425        H  0.07570493  0.27752437  0.37505404     0.41190
H426        H  0.02179309  0.25050497  0.29852625     0.39130
H427        H  0.48182219  0.16861782  0.15340144     0.42260
H428        H  0.00012711  0.07559373  0.13741582     0.37040
H429        H  0.07384002  0.01546028  0.10169867     0.43160
H430        H  0.15315170  0.05784372  0.19908972     0.39580
H431        H  0.49678396  0.21770032  0.29345874     0.44490
H432        H  0.00873241  0.08921961  0.09340533     0.43220
H433        H  0.17489980  0.09171414  0.23248624     0.43350
H434        H  0.13420791  0.24181689  0.38732883     0.43710
O435        O  0.03463780  0.04935117  0.71403476    -0.75160
O436        O  0.05692229  0.99658444  0.76157323    -0.54070
C437        C  0.04153360  0.00345204  0.72260215     0.78570
O438        O  0.14262034  0.17947826  0.69551456    -0.59760
O439        O  0.11506945  0.23512553  0.64989898    -0.52790
C440        C  0.13748269  0.21154574  0.66342801     0.70580
O441        O  0.13261727  0.05100652  0.77438215    -0.74320
O442        O  0.11338602  0.05271793  0.83104039    -0.54880
C443        C  0.12702654  0.03053210  0.80783648     0.76590
O444        O  0.06233999  0.11326905  0.59197493    -0.59460
O445        O  0.06647703  0.20088064  0.59198868    -0.52580
C446        C  0.06521770  0.15545663  0.57293095     0.73180
Zr447      Zr  0.05451767  0.08885785  0.66285330     2.54710
O448        O  0.07209937  0.01025022  0.63759924    -0.80030
O449        O  0.01249842  0.08167210  0.60659683    -0.93450
Zr450      Zr  0.12155875  0.13235729  0.74161235     2.64680
O451        O  0.14758815  0.07732525  0.70552743    -0.98400
O452        O  0.16046215  0.16255418  0.79818590    -0.80460
O453        O  0.08764891  0.06821413  0.73015371    -0.83820
O454        O  0.09043312  0.14424294  0.67122240    -2.18530
O455        O  0.02552875  0.23140236  0.67412497    -0.67210
O456        O  0.03389188  0.28288305  0.62967474    -0.51770
C457        C  0.01640300  0.26646843  0.64726129     0.71560
O458        O  0.08437373  0.19512773  0.87945872    -0.60120
O459        O  0.07922792  0.10785037  0.87595030    -0.52090
C460        C  0.08213662  0.15176770  0.89760819     0.73360
O461        O  0.10405975  0.29995468  0.78140017    -0.71510
O462        O  0.08564697  0.31127376  0.70595588    -0.50190
C463        C  0.09706190  0.32759145  0.74631143     0.74750
O464        O  0.49910792  0.11575677  0.77076045    -0.66840
O465        O  0.02987483  0.06354730  0.81358820    -0.54040
C466        C  0.50653826  0.08079965  0.80064284     0.73130
Zr467      Zr  0.01950096  0.17927673  0.73181531     2.77540
O468        O  0.00217569  0.24774713  0.77233723    -0.97590
O469        O  0.47945421  0.14254542  0.68281818    -0.78410
Zr470      Zr  0.08568390  0.22512167  0.80554478     2.70070
O471        O  0.06032033  0.29173999  0.83162296    -0.79660
O472        O  0.12594042  0.24478519  0.86397090    -0.98740
Zr473      Zr  0.07084109  0.08294218  0.79606892     2.21500
Zr474      Zr  0.07220597  0.22862103  0.67152469     2.11130
O475        O  0.05306500  0.24239908  0.73725906    -2.47430
O476        O  0.05098968  0.16470466  0.80089381    -0.79450
O477        O  0.03507875  0.16987394  0.66414194    -0.71650
O478        O  0.10573556  0.14373996  0.80678029    -2.32600
O479        O  0.05670672  0.13234944  0.73208140    -2.28810
O480        O  0.10442148  0.21622990  0.74279213    -0.73410
H481        H  0.09956040  0.13838337  0.64826487     0.78590
H482        H  0.11934735  0.14169979  0.83475952     0.79680
H483        H  0.04730531  0.27760002  0.73986483     0.81900
H484        H  0.07045892  0.15759946  0.73506520     0.79510
H485        H  0.16714551  0.13165450  0.81591323     0.42550
H486        H  0.13687874  0.26568266  0.84952356     0.41520
H487        H  0.05269218  0.27460216  0.85366109     0.41190
H488        H  0.01145420  0.27987271  0.76912055     0.39130
H489        H  0.48065151  0.14845394  0.65161109     0.42260
H490        H  0.50825383  0.11675051  0.59565047     0.37040
H491        H  0.09122500  0.01459983  0.64863932     0.43160
H492        H  0.14200897  0.08430846  0.67272567     0.39580
H493        H  0.50869485  0.23916391  0.80467193     0.44490
H494        H  0.01625010  0.06273719  0.58053827     0.43220
H495        H  0.16565298  0.09051245  0.71661426     0.43350
H496        H  0.12100667  0.26866797  0.88601498     0.43710
C497        C  0.07293910  0.12861787  0.43800015    -0.00020
C498        C  0.05362078  0.16178902  0.44576583    -0.11900
C499        C  0.05062860  0.17113874  0.48930423     0.02210
C500        C  0.06831324  0.14944958  0.52662692    -0.00110
C501        C  0.08843883  0.11772102  0.51937251    -0.11840
C502        C  0.09105283  0.10766647  0.47545160     0.02100
H503        H  0.04140020  0.18177729  0.41751735     0.15080
H504        H  0.10236224  0.10142932  0.54820530     0.15080
C505        C  0.11357875  0.07981810  0.47002076     0.36730
C506        C  0.02874777  0.20120910  0.49473642     0.36640
N507        N  0.13189426  0.05825158  0.46587104    -0.43610
N508        N  0.51133034  0.22552883  0.49936785    -0.43610
C509        C  0.07491824  0.16658722  0.03518419    -0.00020
C510        C  0.06704436  0.12090394  0.00890351    -0.11900
C511        C  0.07079155  0.11365849  0.96578871     0.02210
C512        C  0.08164058  0.15385399  0.94620209    -0.00110
C513        C  0.09000006  0.19935238  0.97260299    -0.11840
C514        C  0.08709446  0.20571160  0.01678169     0.02100
H515        H  0.05777458  0.08984996  0.02199489     0.15080
H516        H  0.09889149  0.23035038  0.95872937     0.15080
C517        C  0.09747092  0.25195152  0.04258472     0.36730
C518        C  0.06228898  0.06491674  0.94241329     0.36640
N519        N  0.10593613  0.28890976  0.06332427    -0.43610
N520        N  0.05540901  0.02577005  0.92403307    -0.43610
C521        C  0.48849571  0.28334478  0.64057514    -0.00020
C522        C  0.47502473  0.26218792  0.66966925    -0.11900
C523        C  0.44868723  0.27122468  0.66601238     0.02210
C524        C  0.43399438  0.30160631  0.63089655    -0.00110
C525        C  0.44728717  0.32383351  0.60133983    -0.11840
C526        C  0.47426462  0.31539024  0.60619231     0.02100
H527        H  0.48497584  0.23620645  0.69496423     0.15080
H528        H  0.43653923  0.34751658  0.57399970     0.15080
C529        C  0.48651521  0.33837330  0.57470062     0.36730
C530        C  0.43730073  0.24598423  0.69773631     0.36640
N531        N  0.49635627  0.35685139  0.54942352    -0.43610
N532        N  0.42868439  0.22553426  0.72367498    -0.43610
C533        C  0.20964248  0.22879907  0.62264153    -0.00020
C534        C  0.19029357  0.26770385  0.61231915    -0.11900
C535        C  0.16573247  0.26233605  0.62148283     0.02210
C536        C  0.16007695  0.21752517  0.64225963    -0.00110
C537        C  0.17870201  0.17692322  0.64827793    -0.11840
C538        C  0.20314407  0.18236347  0.63941105     0.02100
H539        H  0.19494728  0.30383423  0.59918254     0.15080
H540        H  0.17484766  0.14096597  0.66232147     0.15080
C541        C  0.22209658  0.14172000  0.65202655     0.36730
C542        C  0.14739582  0.30420132  0.61124265     0.36640
N543        N  0.23737059  0.10934635  0.66246352    -0.43610
N544        N  0.13261841  0.33767871  0.60260248    -0.43610
C545        C  0.31500436  0.31193781  0.80060992    -0.00020
C546        C  0.29376249  0.29001200  0.81232955    -0.11900
C547        C  0.29344332  0.28681082  0.85766377     0.02210
C548        C  0.31487309  0.30584509  0.89252696    -0.00110
C549        C  0.33632917  0.32671507  0.88070715    -0.11840
C550        C  0.33648611  0.33052077  0.83542363     0.02100
H551        H  0.27730289  0.27520104  0.78591601     0.15080
H552        H  0.35260895  0.34256903  0.90688705     0.15080
C553        C  0.35819082  0.35726438  0.82619834     0.36730
C554        C  0.27087208  0.26334166  0.86681335     0.36640
N555        N  0.37569211  0.37934735  0.81986594    -0.43610
N556        N  0.25256396  0.24446611  0.87325786    -0.43610
C557        C  0.31056680  0.33489774  0.39034605    -0.00020
C558        C  0.29218258  0.36640295  0.36143383    -0.11900
C559        C  0.29097902  0.36932731  0.31534652     0.02210
C560        C  0.30862145  0.34053354  0.29729690    -0.00110
C561        C  0.32654983  0.30810171  0.32593857    -0.11840
C562        C  0.32753775  0.30467607  0.37182010     0.02100
H563        H  0.27894853  0.38978653  0.37500956     0.15080
H564        H  0.33973911  0.28465512  0.31228835     0.15080
C565        C  0.34554182  0.26838288  0.39836931     0.36730
C566        C  0.27202415  0.40351008  0.28805658     0.36640
N567        N  0.35991643  0.23909245  0.41944924    -0.43610
N568        N  0.25670130  0.43076699  0.26635913    -0.43610
C569        C  0.43484040  0.31529774  0.13512374    -0.00020
C570        C  0.45238955  0.34316763  0.17025970    -0.11900
C571        C  0.47966343  0.33917725  0.17677611     0.02210
C572        C  0.49031664  0.30671145  0.14812615    -0.00110
C573        C  0.47274519  0.28313666  0.11052678    -0.11840
C574        C  0.44560202  0.28586989  0.10441886     0.02100
H575        H  0.44487484  0.36702903  0.19350400     0.15080
H576        H  0.48026340  0.25632611  0.08927600     0.15080
C577        C  0.42958897  0.25326788  0.06877765     0.36730
C578        C  0.49662542  0.36464688  0.21610781     0.36640
N579        N  0.41689282  0.22682863  0.04037440    -0.43610
N580        N  0.01020133  0.38506644  0.24768567    -0.43610
C581        C  0.16314777  0.21518479  0.15394701    -0.00020
C582        C  0.17215678  0.26573311  0.15651233    -0.11900
C583        C  0.19671965  0.27700398  0.15059197     0.02210
C584        C  0.21382511  0.23651304  0.14303310    -0.00110
C585        C  0.20353455  0.18626593  0.13579859    -0.11840
C586        C  0.17837119  0.17557105  0.14047447     0.02100
H587        H  0.16051632  0.29656398  0.16566971     0.15080
H588        H  0.21521552  0.15519605  0.12728003     0.15080
C589        C  0.16822635  0.12379977  0.12979096     0.36730
C590        C  0.20332706  0.33137048  0.15322506     0.36640
N591        N  0.16005802  0.08246822  0.12012322    -0.43610
N592        N  0.20827344  0.37503380  0.15579057    -0.43610
C593        C  0.02596713  0.91479087  0.59620056    -0.00020
C594        C  0.01086623  0.95666104  0.60355972    -0.11900
C595        C  0.01333822  0.97782558  0.64699530     0.02210
C596        C  0.03474183  0.96549565  0.68343510    -0.00110
C597        C  0.05122908  0.92528917  0.67647753    -0.11840
C598        C  0.04630057  0.89869779  0.63372460     0.02100
H599        H  0.49536083  0.97000446  0.57628391     0.15080
H600        H  0.06802390  0.91534781  0.70369845     0.15080
C601        C  0.06280544  0.85603385  0.62869392     0.36730
C602        C  0.49285968  0.01069323  0.65463733     0.36640
N603        N  0.07637206  0.82220241  0.62494763    -0.43610
N604        N  0.47648217  0.03663354  0.66130802    -0.43610
C605        C  0.46572694  0.01021834  0.38510284    -0.00020
C606        C  0.97778724  0.05753683  0.40115177    -0.11900
C607        C  0.98864064  0.08655456  0.37265934     0.02210
C608        C  0.49102795  0.06384809  0.33163618    -0.00110
C609        C  0.47557264  0.02084074  0.31336004    -0.11840
C610        C  0.46110176  0.99680694  0.33897891     0.02100
H611        H  0.97826735  0.07194084  0.43494716     0.15080
H612        H  0.47435333  0.00720896  0.27912770     0.15080
C613        C  0.43894851  0.96496796  0.31699784     0.36730
C614        C  0.99269545  0.14113274  0.38177946     0.36640
N615        N  0.42014956  0.94187050  0.30007038    -0.43610
N616        N  0.99383407  0.18552187  0.38745661    -0.43610
C617        C  0.37976763  0.62352392  0.53363734    -0.00020
C618        C  0.38856904  0.58141158  0.51007164    -0.11900
C619        C  0.38378501  0.52808995  0.51648240     0.02210
C620        C  0.36976892  0.51359474  0.54738331    -0.00110
C621        C  0.36041795  0.55566411  0.56994441    -0.11840
C622        C  0.36465158  0.60892398  0.56277147     0.02100
H623        H  0.40021859  0.58994422  0.48701386     0.15080
H624        H  0.35000217  0.54712307  0.59478143     0.15080
C625        C  0.35380784  0.64765967  0.58694998     0.36730
C626        C  0.39531662  0.48902176  0.49364057     0.36640
N627        N  0.34473839  0.67852596  0.60605157    -0.43610
N628        N  0.40475622  0.45758303  0.47567365    -0.43610
C629        C  0.36445288  0.01544331  0.53525958    -0.00020
C630        C  0.37702696  0.05589214  0.51793160    -0.11900
C631        C  0.37125820  0.10924774  0.52072604     0.02210
C632        C  0.35049639  0.12552674  0.53784758    -0.00110
C633        C  0.33763141  0.08551998  0.55542048    -0.11840
C634        C  0.34447601  0.03192460  0.55469340     0.02100
H635        H  0.39086910  0.04593831  0.49926245     0.15080
H636        H  0.32156484  0.09592007  0.56931445     0.15080
C637        C  0.32928646  0.99438040  0.57059647     0.36730
C638        C  0.38639440  0.14605002  0.50378964     0.36640
N639        N  0.31702460  0.96414182  0.58314524    -0.43610
N640        N  0.39892001  0.17530813  0.49074075    -0.43610
C641        C  0.42342276  0.81673293  0.78981670    -0.00020
C642        C  0.40005546  0.80350122  0.75703485    -0.11900
C643        C  0.39795396  0.80566233  0.71057377     0.02210
C644        C  0.41970658  0.82058748  0.69578045    -0.00110
C645        C  0.44320229  0.83260069  0.72863175    -0.11840
C646        C  0.44530906  0.83096620  0.77484130     0.02100
H647        H  0.38295732  0.79248142  0.76751205     0.15080
H648        H  0.46023967  0.84473571  0.71846253     0.15080
C649        C  0.47004550  0.84631118  0.80531992     0.36730
C650        C  0.37310663  0.79316834  0.67940036     0.36640
N651        N  0.98988416  0.85849226  0.82944483    -0.43610
N652        N  0.35303724  0.78356861  0.65468236    -0.43610
C653        C  0.43936504  0.81371504  0.29503232    -0.00020
C654        C  0.45048690  0.85387315  0.27688473    -0.11900
C655        C  0.44263880  0.86329621  0.23027175     0.02210
C656        C  0.42512399  0.82906903  0.19971268    -0.00110
C657        C  0.41612555  0.78562729  0.21743068    -0.11840
C658        C  0.42311179  0.77768846  0.26445010     0.02100
H659        H  0.46362206  0.88071923  0.29957097     0.15080
H660        H  0.40403547  0.75736323  0.19454541     0.15080
C661        C  0.41414102  0.73108102  0.28048527     0.36730
C662        C  0.45143120  0.91072165  0.21517459     0.36640
N663        N  0.40722383  0.69338187  0.29322191    -0.43610
N664        N  0.45813445  0.94889634  0.20289620    -0.43610
C665        C  0.02397935  0.90906661  0.07259819    -0.00020
C666        C  0.04424060  0.88170340  0.10175319    -0.11900
C667        C  0.05602086  0.90048639  0.14610236     0.02210
C668        C  0.04501182  0.94300307  0.16423514    -0.00110
C669        C  0.02422336  0.96848663  0.13524416    -0.11840
C670        C  0.01555021  0.95502390  0.08902837     0.02100
H671        H  0.05081243  0.84565240  0.08982829     0.15080
H672        H  0.51688020  0.00252921  0.14804386     0.15080
C673        C  0.49988141  0.99091637  0.05817557     0.36730
C674        C  0.07966177  0.87640239  0.17134682     0.36640
N675        N  0.48812943  0.02041208  0.03302556    -0.43610
N676        N  0.09882259  0.85669199  0.19036000    -0.43610
C677        C  0.45588046  0.01071339  0.87263416    -0.00020
C678        C  0.47343151  0.05006393  0.89342726    -0.11900
C679        C  0.98848863  0.07602240  0.86912963     0.02210
C680        C  0.48727801  0.06064377  0.82385713    -0.00110
C681        C  0.46832385  0.02417016  0.80202077    -0.11840
C682        C  0.45243277  0.00000101  0.82580237     0.02100
H683        H  0.97591189  0.05956608  0.92902576     0.15080
H684        H  0.46634807  0.01361659  0.76674208     0.15080
C685        C  0.43238255  0.96469150  0.80142018     0.36730
C686        C  0.00454901  0.11895038  0.89094026     0.36640
N687        N  0.41578120  0.93761310  0.78154026    -0.43610
N688        N  0.01689015  0.15433308  0.90791369    -0.43610
C689        C  0.37287172  0.50841342  0.02893616    -0.00020
C690        C  0.39379832  0.53001706  0.06299803    -0.11900
C691        C  0.39883193  0.58436182  0.06820391     0.02210
C692        C  0.38265054  0.62111878  0.03981480    -0.00110
C693        C  0.36228945  0.59969384  0.00465552    -0.11840
C694        C  0.35731397  0.54524342  0.99937289     0.02100
H695        H  0.40529301  0.50454715  0.08812310     0.15080
H696        H  0.35029078  0.62555005  0.98052801     0.15080
C697        C  0.33443048  0.52796567  0.96505345     0.36730
C698        C  0.42078137  0.60174418  0.10436163     0.36640
N699        N  0.31596163  0.51409184  0.93787341    -0.43610
N700        N  0.43839916  0.61544199  0.13343186    -0.43610
C701        C  0.35711140  0.00936409  0.04131354    -0.00020
C702        C  0.37462287  0.03848717  0.07608692    -0.11900
C703        C  0.37340780  0.09376299  0.07923183     0.02210
C704        C  0.35507842  0.12260221  0.04646040    -0.00110
C705        C  0.33740084  0.09326074  0.01255508    -0.11840
C706        C  0.33807736  0.03856469  0.00991376     0.02100
H707        H  0.38998079  0.01835832  0.09994389     0.15080
H708        H  0.32186019  0.11329953  0.98891589     0.15080
C709        C  0.31859940  0.01295877  0.97384367     0.36730
C710        C  0.39103378  0.12036615  0.11704574     0.36640
N711        N  0.30305308  0.99250591  0.94486232    -0.43610
N712        N  0.40514711  0.14183271  0.14737210    -0.43610
C713        C  0.20450900  0.40563554  0.00885131    -0.00020
C714        C  0.21600700  0.44292371  0.98785961    -0.11900
C715        C  0.20503634  0.45562251  0.94253490     0.02210
C716        C  0.18019678  0.43682132  0.91906214    -0.00110
C717        C  0.16777682  0.40202036  0.94122525    -0.11840
C718        C  0.18011044  0.38493947  0.98489990     0.02100
H719        H  0.23526664  0.45751120  0.00511608     0.15080
H720        H  0.14810448  0.38931552  0.92486269     0.15080
C721        C  0.16768138  0.34556734  0.00448212     0.36730
C722        C  0.22006676  0.48711666  0.92037914     0.36640
N723        N  0.15777585  0.31396111  0.02024094    -0.43610
N724        N  0.23266204  0.51146637  0.90302777    -0.43610
C725        C  0.23473336  0.53518690  0.76167389    -0.00020
C726        C  0.26130283  0.54928186  0.77131577    -0.11900
C727        C  0.27700438  0.53074609  0.74396569     0.02210
C728        C  0.26581657  0.49919384  0.70573299    -0.00110
C729        C  0.23915118  0.48809421  0.69478205    -0.11840
C730        C  0.22372771  0.50437327  0.72222040     0.02100
H731        H  0.27003741  0.57329021  0.80100287     0.15080
H732        H  0.23061948  0.46235990  0.66610436     0.15080
C733        C  0.19699274  0.48641708  0.70866079     0.36730
C734        C  0.30456105  0.54164238  0.75728507     0.36640
N735        N  0.17585562  0.47074153  0.69717335    -0.43610
N736        N  0.32667273  0.55044626  0.76812943    -0.43610
C737        C  0.29914857  0.79229988  0.94636061    -0.00020
C738        C  0.28752227  0.77222715  0.97880500    -0.11900
C739        C  0.26026664  0.76818382  0.97069204     0.02210
C740        C  0.24373011  0.78500329  0.92956508    -0.00110
C741        C  0.25527772  0.80744806  0.89813711    -0.11840
C742        C  0.28247654  0.81138673  0.90608236     0.02100
H743        H  0.29983371  0.75786730  0.01022420     0.15080
H744        H  0.24288867  0.82016941  0.86610087     0.15080
C745        C  0.29247424  0.83634554  0.87256682     0.36730
C746        C  0.24997243  0.74218034  0.00329206     0.36640
N747        N  0.30001682  0.85688292  0.84538907    -0.43610
N748        N  0.24190195  0.72064713  0.02932942    -0.43610
C749        C  0.02353715  0.74070088  0.96439642    -0.00020
C750        C  0.04732670  0.75958392  0.99287137    -0.11900
C751        C  0.07052619  0.75789776  0.97858328     0.02210
C752        C  0.06966372  0.73910580  0.93451007    -0.00110
C753        C  0.04524195  0.72314947  0.90592767    -0.11840
C754        C  0.02292375  0.72170539  0.92089112     0.02100
H755        H  0.04755549  0.77736785  0.02543360     0.15080
H756        H  0.04347718  0.71005042  0.87126190     0.15080
C757        C  0.49894061  0.70348117  0.88963761     0.36730
C758        C  0.09449166  0.77653757  0.00900148     0.36640
N759        N  0.47972451  0.68907275  0.86474501    -0.43610
N760        N  0.11364139  0.79200301  0.03338075    -0.43610
C761        C  0.09095656  0.48812470  0.75665962    -0.00020
C762        C  0.09213628  0.45892415  0.79466566    -0.11900
C763        C  0.09753902  0.40694906  0.79409170     0.02210
C764        C  0.09998248  0.38294586  0.75333423    -0.00110
C765        C  0.09890579  0.41261749  0.71525741    -0.11840
C766        C  0.09427050  0.46509706  0.71663572     0.02100
H767        H  0.09002731  0.47718642  0.82580012     0.15080
H768        H  0.10052878  0.39445292  0.68376490     0.15080
C769        C  0.09122998  0.49367936  0.67583056     0.36730
C770        C  0.09992257  0.38053998  0.83596366     0.36640
N771        N  0.08814156  0.51554829  0.64240622    -0.43610
N772        N  0.10185698  0.36140531  0.87041269    -0.43610
C773        C  0.13493029  0.87104681  0.82261175    -0.00020
C774        C  0.14614512  0.89424452  0.79198595    -0.11900
C775        C  0.14499568  0.94676533  0.78755765     0.02210
C776        C  0.13270883  0.97659734  0.81535848    -0.00110
C777        C  0.12088925  0.95228419  0.84540162    -0.11840
C778        C  0.12118121  0.89944472  0.84811552     0.02100
H779        H  0.15649317  0.87124783  0.77220906     0.15080
H780        H  0.11028080  0.97404918  0.86542726     0.15080
C781        C  0.10632964  0.87541936  0.87546279     0.36730
C782        C  0.15636717  0.96676639  0.75355138     0.36640
N783        N  0.09412733  0.85666352  0.89699914    -0.43610
N784        N  0.16574509  0.97947604  0.72552393    -0.43610
C785        C  0.15558466  0.60338643  0.55528472    -0.00020
C786        C  0.17849064  0.61075007  0.59076174    -0.11900
C787        C  0.17822236  0.60940978  0.63659209     0.02210
C788        C  0.15483061  0.59962121  0.64837214    -0.00110
C789        C  0.13198925  0.59217989  0.61334318    -0.11840
C790        C  0.13211553  0.59312352  0.56740111     0.02100
H791        H  0.19671657  0.61889177  0.58282194     0.15080
H792        H  0.11368228  0.58823510  0.62188094     0.15080
C793        C  0.10748586  0.58575592  0.53387948     0.36730
C794        C  0.20191116  0.62195747  0.67094862     0.36640
N795        N  0.08769397  0.57951746  0.50722421    -0.43610
N796        N  0.22087509  0.63287358  0.69824846    -0.43610
C797        C  0.14939864  0.68362238  0.14571455    -0.00020
C798        C  0.16856547  0.71435165  0.13470544    -0.11900
C799        C  0.16983044  0.71836249  0.08962028     0.02210
C800        C  0.15229230  0.68972115  0.05479415    -0.00110
C801        C  0.13199087  0.66272057  0.06509627    -0.11840
C802        C  0.13000771  0.66014057  0.10950925     0.02100
H803        H  0.18302023  0.73441242  0.16141371     0.15080
H804        H  0.11778497  0.64235475  0.03811860     0.15080
C805        C  0.10809115  0.63151972  0.11594723     0.36730
C806        C  0.18972872  0.75074511  0.08043571     0.36640
N807        N  0.09028105  0.60871289  0.12023134    -0.43610
N808        N  0.20545573  0.77759720  0.07338842    -0.43610
C809        C  0.16796726  0.45763302  0.47405173    -0.00020
C810        C  0.18409527  0.48742737  0.50903905    -0.11900
C811        C  0.19916412  0.46468649  0.54779585     0.02210
C812        C  0.19854773  0.41054242  0.55120680    -0.00110
C813        C  0.17883347  0.38207714  0.51986826    -0.11840
C814        C  0.16368334  0.40537292  0.48067673     0.02100
H815        H  0.18738294  0.52774517  0.50364142     0.15080
H816        H  0.17824068  0.34038606  0.52204154     0.15080
C817        C  0.14607639  0.37442274  0.44590252     0.36730
C818        C  0.21964129  0.49616252  0.57662988     0.36640
N819        N  0.13182945  0.34999419  0.41786857    -0.43610
N820        N  0.23608617  0.52259741  0.59800837    -0.43610
C821        C  0.23508633  0.56852767  0.24157402    -0.00020
C822        C  0.22062661  0.55033730  0.19891289    -0.11900
C823        C  0.23293758  0.52676469  0.16880466     0.02210
C824        C  0.26024475  0.52106232  0.18139425    -0.00110
C825        C  0.27494851  0.54311063  0.22268177    -0.11840
C826        C  0.26248518  0.56698644  0.25291170     0.02100
H827        H  0.19952340  0.55247148  0.18993461     0.15080
H828        H  0.29589254  0.53795167  0.23288166     0.15080
C829        C  0.27792606  0.58659801  0.29628594     0.36730
C830        C  0.21696852  0.50570520  0.12633231     0.36640
N831        N  0.29027205  0.60245820  0.33104902    -0.43610
N832        N  0.20397207  0.48903415  0.09241883    -0.43610
C833        C  0.25789340  0.76273437  0.40113839    -0.00020
C834        C  0.26945777  0.77018240  0.44756352    -0.11900
C835        C  0.29548008  0.78283328  0.46328738     0.02210
C836        C  0.31029633  0.79044589  0.43172847    -0.00110
C837        C  0.29790748  0.78982949  0.38525413    -0.11840
C838        C  0.27178099  0.77634719  0.36955288     0.02100
H839        H  0.25875023  0.76225713  0.47227017     0.15080
H840        H  0.30880073  0.79839861  0.36097084     0.15080
C841        C  0.26035987  0.77551205  0.32108732     0.36730
C842        C  0.30627561  0.78375303  0.51200466     0.36640
N843        N  0.25130853  0.77496597  0.28225950    -0.43610
N844        N  0.31475447  0.78443111  0.55097238    -0.43610
C845        C  0.02115245  0.71071477  0.45795119    -0.00020
C846        C  0.01880635  0.70170417  0.41182450    -0.11900
C847        C  0.04073013  0.69160684  0.39695935     0.02210
C848        C  0.06511872  0.69022405  0.42885879    -0.00110
C849        C  0.06743852  0.69646774  0.47526130    -0.11840
C850        C  0.04537843  0.70685418  0.49014130     0.02100
H851        H  0.00008082  0.70610821  0.38723379     0.15080
H852        H  0.08640662  0.69427430  0.49947316     0.15080
C853        C  0.04807114  0.71593939  0.53789938     0.36730
C854        C  0.03799849  0.68517081  0.34883254     0.36640
N855        N  0.05012842  0.72286197  0.57618873    -0.43610
N856        N  0.03591657  0.68020165  0.31034537    -0.43610
C857        C  0.08423671  0.38158820  0.27023774    -0.00020
C858        C  0.07271622  0.39459715  0.30547397    -0.11900
C859        C  0.06663521  0.44562634  0.31367459     0.02210
C860        C  0.07200420  0.48451457  0.28628187    -0.00110
C861        C  0.07930800  0.47026901  0.24681255    -0.11840
C862        C  0.08700432  0.41984283  0.24002211     0.02100
H863        H  0.06871944  0.36501680  0.32717259     0.15080
H864        H  0.08216090  0.49971766  0.22427386     0.15080
C865        C  0.10012706  0.40977064  0.20497733     0.36730
C866        C  0.05595011  0.45766212  0.35141278     0.36640
N867        N  0.11110371  0.40168193  0.17758257    -0.43610
N868        N  0.04730875  0.46742642  0.38153633    -0.43610
C869        C  0.16340748  0.85118758  0.31043106    -0.00020
C870        C  0.13652243  0.85451914  0.29566451    -0.11900
C871        C  0.12402220  0.90127913  0.29518917     0.02210
C872        C  0.13885789  0.94728381  0.30444017    -0.00110
C873        C  0.16626939  0.94443049  0.31708734    -0.11840
C874        C  0.17866255  0.89619061  0.32205166     0.02100
H875        H  0.12516695  0.81949650  0.28763875     0.15080
H876        H  0.17782819  0.97955613  0.32477510     0.15080
C877        C  0.20650827  0.89348258  0.34074474     0.36730
C878        C  0.09609105  0.89926308  0.28728354     0.36640
N879        N  0.22880570  0.89122240  0.35612159    -0.43610
N880        N  0.07388520  0.89484555  0.28217625    -0.43610
O881        O  0.66786115  0.78080269  0.35740739    -0.75160
O882        O  0.68129439  0.77125857  0.29482430    -0.54070
C883        C  0.67285490  0.79963415  0.32244910     0.78570
O884        O  0.67660945  0.63271235  0.49983238    -0.59760
O885        O  0.63781571  0.59062578  0.47476056    -0.52790
C886        C  0.65669317  0.60916649  0.50687276     0.70580
O887        O  0.72419136  0.71826494  0.42040272    -0.74320
O888        O  0.72416702  0.72147886  0.34630717    -0.54880
C889        C  0.73353305  0.73320235  0.38814556     0.76590
O890        O  0.60029056  0.71707020  0.40332695    -0.59460
O891        O  0.59267393  0.63109576  0.40947560    -0.52580
C892        C  0.58783990  0.67890877  0.41372656     0.73180
Zr893      Zr  0.62989779  0.72707747  0.35587665     2.54710
O894        O  0.62193447  0.81361871  0.38227047    -0.80030
O895        O  0.59149092  0.75311679  0.29678074    -0.93450
Zr896      Zr  0.69198409  0.65992190  0.43445842     2.64680
O897        O  0.70208466  0.72911320  0.49198477    -0.98400
O898        O  0.73012975  0.61239962  0.47535863    -0.80460
O899        O  0.67528733  0.71483638  0.37359103    -0.83820
O900        O  0.64629278  0.67194993  0.41756123    -2.18530
O901        O  0.58266424  0.57157188  0.27933317    -0.67210
O902        O  0.59254955  0.53691119  0.34894790    -0.51770
C903        C  0.58120823  0.53541089  0.30630773     0.71560
O904        O  0.71098337  0.54981140  0.29337516    -0.60120
O905        O  0.71632162  0.63395258  0.27689289    -0.52090
C906        C  0.72045994  0.58541790  0.27366577     0.73360
O907        O  0.67721468  0.49147133  0.40973604    -0.71510
O908        O  0.63703140  0.50372677  0.42094656    -0.50190
C909        C  0.65945685  0.48270842  0.43040422     0.74750
O910        O  0.63181700  0.65031383  0.20315011    -0.66840
O911        O  0.67188604  0.68733950  0.22486539    -0.54040
C912        C  0.65106101  0.67370427  0.19436822     0.73130
Zr913      Zr  0.62157320  0.61040915  0.26726258     2.77540
O914        O  0.62705295  0.53945855  0.21683622    -0.97590
O915        O  0.58147653  0.63673783  0.21344345    -0.78410
Zr916      Zr  0.68403007  0.54199893  0.34654580     2.70070
O917        O  0.67151945  0.45984388  0.30611266    -0.79660
O918        O  0.72655485  0.50489554  0.38105791    -0.98740
Zr919      Zr  0.68506033  0.67985148  0.30707763     2.21500
Zr920      Zr  0.62840282  0.58885034  0.39234820     2.11130
O921        O  0.63823122  0.55108830  0.32650301    -2.47430
O922        O  0.66691209  0.59714455  0.28489987    -0.79450
O923        O  0.61080004  0.64546963  0.33225513    -0.71650
O924        O  0.70324078  0.62439856  0.36913546    -2.32600
O925        O  0.63919737  0.69414787  0.28868104    -2.28810
O926        O  0.67409138  0.57821503  0.41150177    -0.73410
H927        H  0.64192298  0.68471639  0.44451171     0.78590
H928        H  0.72192593  0.62216335  0.37464964     0.79680
H929        H  0.63077394  0.51703795  0.31879896     0.81900
H930        H  0.63401862  0.71847288  0.26462426     0.79510
H931        H  0.74355942  0.63932833  0.48720559     0.42550
H932        H  0.73937835  0.52878958  0.37414413     0.41520
H933        H  0.67203069  0.46634685  0.27463276     0.41190
H934        H  0.62728243  0.50769152  0.23414137     0.39130
H935        H  0.57516944  0.66622018  0.22880593     0.42260
H936        H  0.59614135  0.75521418  0.26770256     0.37040
H937        H  0.63536125  0.81869158  0.41143344     0.43160
H938        H  0.68518457  0.73786291  0.49798896     0.39580
H939        H  0.61075191  0.53790958  0.19208070     0.44490
H940        H  0.58749494  0.78891085  0.30473539     0.43220
H941        H  0.71217711  0.71232561  0.51985573     0.43350
H942        H  0.72883250  0.51016152  0.41403754     0.43710
O943        O  0.58739246  0.68757651  0.88912557    -0.75160
O944        O  0.61525555  0.74816446  0.92937111    -0.54070
C945        C  0.59270317  0.72528556  0.91743534     0.78570
O946        O  0.64952025  0.49979624  0.90351237    -0.59760
O947        O  0.66670888  0.47930617  0.84607695    -0.52790
C948        C  0.66360668  0.47118372  0.88598242     0.70580
O949        O  0.65235670  0.63580287  0.99181341    -0.74320
O950        O  0.66096871  0.72113363  0.98752799    -0.54880
C951        C  0.65561714  0.68223822  0.00858934     0.76590
O952        O  0.58113069  0.56505659  0.78974548    -0.59460
O953        O  0.61271964  0.56473948  0.75555988    -0.52580
C954        C  0.59350679  0.54277389  0.76447863     0.73180
Zr955      Zr  0.60221120  0.63485778  0.83790674     2.54710
O956        O  0.57267700  0.58576542  0.86969516    -0.80030
O957        O  0.56738196  0.67951282  0.78438704    -0.93450
Zr958      Zr  0.66333280  0.58513439  0.93096208     2.64680
O959        O  0.65568803  0.53376612  0.99188559    -0.98400
O960        O  0.70659670  0.56695025  0.97892017    -0.80460
O961        O  0.63176626  0.64945199  0.91044723    -0.83820
O962        O  0.63248443  0.56781488  0.85828283    -2.18530
O963        O  0.65001726  0.65383619  0.70852992    -0.67210
O964        O  0.65564483  0.56744407  0.72211525    -0.51770
C965        C  0.65315190  0.60687677  0.69602408     0.71560
O966        O  0.70993760  0.74562110  0.87372653    -0.60120
O967        O  0.69927603  0.76828628  0.93636590    -0.52090
C968        C  0.71608566  0.76727607  0.91278761     0.73360
O969        O  0.72655363  0.59526864  0.81675098    -0.71510
O970        O  0.69615741  0.53396969  0.78543721    -0.50190
C971        C  0.71840671  0.55549326  0.79058721     0.74750
O972        O  0.64023272  0.78968578  0.79564302    -0.66840
O973        O  0.64623030  0.80502921  0.87184618    -0.54040
C974        C  0.64054733  0.81826389  0.83053692     0.73130
Zr975      Zr  0.64826007  0.70237989  0.77742367     2.77540
O976        O  0.67663200  0.75464084  0.74565993    -0.97590
O977        O  0.60927967  0.72445651  0.71869150    -0.78410
Zr978      Zr  0.71028857  0.65291066  0.86824204     2.70070
O979        O  0.74991004  0.68592157  0.85330851    -0.79660
O980        O  0.74590786  0.63026847  0.93350054    -0.98740
Zr981      Zr  0.65591960  0.72529859  0.90700799     2.21500
Zr982      Zr  0.65709617  0.56118256  0.80314206     2.11130
O983        O  0.68029438  0.63776586  0.79741171    -2.47430
O984        O  0.67836992  0.71853583  0.84850684    -0.79450
O985        O  0.62546370  0.62717153  0.78234221    -0.71650
O986        O  0.68824229  0.65952260  0.92732593    -2.32600
O987        O  0.62506770  0.71068545  0.83412256    -2.28810
O988        O  0.68737552  0.57724178  0.87540712    -0.73410
H989        H  0.62029072  0.53957487  0.85461647     0.78590
H990        H  0.69992519  0.66809936  0.95655600     0.79680
H991        H  0.68892396  0.63634419  0.77344775     0.81900
H992        H  0.61200314  0.73733585  0.82761091     0.79510
H993        H  0.70705912  0.58396136  0.00848034     0.42550
H994        H  0.73950125  0.63508810  0.96077309     0.41520
H995        H  0.74386056  0.70330512  0.82395081     0.41190
H996        H  0.69001294  0.73030647  0.74060250     0.39130
H997        H  0.59756954  0.69423876  0.71612521     0.42260
H998        H  0.56525036  0.71264959  0.79986690     0.37040
H999        H  0.58393009  0.57211372  0.89815392     0.43160
H1000       H  0.63784082  0.51961155  0.98014845     0.39580
H1001       H  0.66594341  0.76254528  0.71483344     0.44490
H1002       H  0.55147234  0.65954522  0.78387847     0.43220
H1003       H  0.66727880  0.50348657  0.99407401     0.43350
H1004       H  0.75913406  0.65783986  0.93645243     0.43710
O1005       O  0.49215171  0.84612496  0.05096962    -0.75160
O1006       O  0.49678846  0.89408885  0.99555307    -0.54070
C1007       C  0.50490047  0.88012823  0.03689304     0.78570
O1008       O  0.91471842  0.67644711  0.02952161    -0.59760
O1009       O  0.87932692  0.71994777  0.04107018    -0.52790
C1010       C  0.89238020  0.67679450  0.03747670     0.70580
O1011       O  0.98624010  0.73358798  0.99475269    -0.74320
O1012       O  0.49036370  0.79889011  0.94846246    -0.54880
C1013       C  0.49868621  0.75884726  0.97101664     0.76590
O1014       O  0.94013439  0.84974476  0.13752696    -0.59460
O1015       O  0.89815377  0.82181020  0.12134819    -0.52580
C1016       C  0.92030499  0.83415349  0.14963066     0.73180
Zr1017     Zr  0.95339766  0.87304983  0.07146424     2.54710
O1018       O  0.98942214  0.87800054  0.13978236    -0.80030
O1019       O  0.95311690  0.96263059  0.09825174    -0.93450
Zr1020     Zr  0.94218398  0.73818062  0.00854306     2.64680
O1021       O  0.96983473  0.69794473  0.07532290    -0.98400
O1022       O  0.94012924  0.66254009  0.95869714    -0.80460
O1023       O  0.96502978  0.81533971  0.01930770    -0.83820
O1024       O  0.92993536  0.79408007  0.06315226    -2.18530
O1025       O  0.86376420  0.95192589  0.98620807    -0.67210
O1026       O  0.87034114  0.91422158  0.05342714    -0.51770
C1027       C  0.86354697  0.95455773  0.02732535     0.71560
O1028       O  0.90208542  0.80686414  0.84773355    -0.60120
O1029       O  0.94449836  0.83302815  0.86803612    -0.52090
C1030       C  0.92351263  0.81860864  0.83842438     0.73360
O1031       O  0.84011913  0.79148777  0.92509783    -0.71510
O1032       O  0.84019128  0.80469846  0.99944351    -0.50190
C1033       C  0.82836825  0.79590305  0.95740539     0.74750
O1034       O  0.92748941  0.98317560  0.91826487    -0.66840
O1035       O  0.95998497  0.93110442  0.90785894    -0.54040
C1036       C  0.94697827  0.97301049  0.90141089     0.73130
Zr1037     Zr  0.90317639  0.93759673  0.96610893     2.77540
O1038       O  0.87190621  0.97027984  0.89941349    -0.97590
O1039       O  0.91081451  0.02359490  0.00121782    -0.78410
Zr1040     Zr  0.88522610  0.79787577  0.91343530     2.70070
O1041       O  0.85195792  0.81478793  0.84377806    -0.79660
O1042       O  0.88034811  0.70601242  0.89405593    -0.98740
Zr1043     Zr  0.95569838  0.85520151  0.94813990     2.21500
Zr1044     Zr  0.88544135  0.82066205  0.03703325     2.11130
O1045       O  0.87718838  0.86138151  0.96402301    -2.47430
O1046       O  0.91095972  0.87432407  0.91604965    -0.79450
O1047       O  0.91033351  0.89829972  0.03947594    -0.71650
O1048       O  0.93075276  0.77664374  0.93714566    -2.32600
O1049       O  0.94659356  0.91655983  0.00083651    -2.28810
O1050       O  0.89709611  0.76081234  0.98491236    -0.73410
H1051       H  0.93301314  0.77434310  0.09032162     0.78590
H1052       H  0.93550073  0.75391400  0.91513224     0.79680
H1053       H  0.85924394  0.87132789  0.95298758     0.81900
H1054       H  0.95729563  0.94681877  0.00311013     0.79510
H1055       H  0.95322747  0.63861400  0.97645392     0.42550
H1056       H  0.86569678  0.69476572  0.90584162     0.41520
H1057       H  0.85340333  0.85235392  0.83957536     0.41190
H1058       H  0.85699101  0.94594712  0.89341115     0.39130
H1059       H  0.91312139  0.01819231  0.03386903     0.42260
H1060       H  0.95270802  0.98451508  0.07221060     0.37040
H1061       H  0.49562838  0.84195184  0.14467555     0.43160
H1062       H  0.95987219  0.69974758  0.09836851     0.39580
H1063       H  0.86529400  0.00272179  0.91004892     0.44490
H1064       H  0.97019943  0.96942534  0.12001735     0.43220
H1065       H  0.96980608  0.66079361  0.06676311     0.43350
H1066       H  0.87327356  0.70454423  0.86068208     0.43710
O1067       O  0.50100434  0.84119532  0.56940743    -0.75160
O1068       O  0.50699182  0.89075116  0.51576133    -0.54070
C1069       C  0.51293592  0.87848057  0.55802333     0.78570
O1070       O  0.91238837  0.67631402  0.52060706    -0.59760
O1071       O  0.87998944  0.72350551  0.53859641    -0.52790
C1072       C  0.89076170  0.67878025  0.53108372     0.70580
O1073       O  0.98451513  0.71434126  0.48657041    -0.74320
O1074       O  0.49852328  0.78568087  0.45695696    -0.54880
C1075       C  0.50010882  0.73854382  0.46864352     0.76590
O1076       O  0.94182498  0.83135870  0.64016132    -0.59460
O1077       O  0.89779576  0.82367191  0.61570514    -0.52580
C1078       C  0.91938790  0.82526865  0.64734075     0.73180
Zr1079     Zr  0.95877207  0.86052136  0.57978313     2.54710
O1080       O  0.99166415  0.86952155  0.65203559    -0.80030
O1081       O  0.94698679  0.94370063  0.60519183    -0.93450
Zr1082     Zr  0.94481853  0.73326277  0.50873902     2.64680
O1083       O  0.97072271  0.69748027  0.57923718    -0.98400
O1084       O  0.94176525  0.65150519  0.46649121    -0.80460
O1085       O  0.97192860  0.80577785  0.52667282    -0.83820
O1086       O  0.93219428  0.78619011  0.56357673    -2.18530
O1087       O  0.87360165  0.95658581  0.48328327    -0.67210
O1088       O  0.87358681  0.91721468  0.54735863    -0.51770
C1089       C  0.86998963  0.95903171  0.52221617     0.71560
O1090       O  0.91724593  0.80604480  0.35069539    -0.60120
O1091       O  0.95952447  0.83395098  0.37512727    -0.52090
C1092       C  0.93927410  0.81735286  0.34381597     0.73360
O1093       O  0.85188182  0.79205736  0.41718740    -0.71510
O1094       O  0.84753494  0.81236611  0.48781184    -0.50190
C1095       C  0.83841757  0.79863543  0.44637636     0.74750
O1096       O  0.93945480  0.98323546  0.43103255    -0.66840
O1097       O  0.97270816  0.93178453  0.42242623    -0.54040
C1098       C  0.95911824  0.97332863  0.41564669     0.73130
Zr1099     Zr  0.91564171  0.93798936  0.47576004     2.77540
O1100       O  0.89076677  0.98768193  0.41204742    -0.97590
O1101       O  0.93349302  0.01303138  0.52372356    -0.78410
Zr1102     Zr  0.89658308  0.80530712  0.41155475     2.70070
O1103       O  0.86745166  0.84771190  0.34773506    -0.79660
O1104       O  0.88685922  0.71879188  0.37841654    -0.98740
Zr1105     Zr  0.96818237  0.85177325  0.45846278     2.21500
Zr1106     Zr  0.89001114  0.82263444  0.53326796     2.11130
O1107       O  0.88693565  0.86559270  0.46303603    -2.47430
O1108       O  0.92494805  0.87821216  0.42384415    -0.79450
O1109       O  0.91794777  0.89595982  0.54574786    -0.71650
O1110       O  0.94016590  0.77736224  0.44096526    -2.32600
O1111       O  0.95724800  0.90870449  0.51275690    -2.28810
O1112       O  0.90168708  0.76368108  0.48022147    -0.73410
H1113       H  0.93259098  0.76364014  0.58834531     0.78590
H1114       H  0.94515960  0.75454470  0.41927567     0.79680
H1115       H  0.86946292  0.87692600  0.44916098     0.81900
H1116       H  0.96833129  0.93868854  0.51833267     0.79510
H1117       H  0.93112123  0.65931530  0.43561594     0.42550
H1118       H  0.88112769  0.69939482  0.40152579     0.41520
H1119       H  0.87530368  0.88231235  0.34760291     0.41190
H1120       H  0.87451562  0.96776369  0.39919475     0.39130
H1121       H  0.92533752  0.01276858  0.54920852     0.42260
H1122       H  0.95768867  0.96812936  0.59392178     0.37040
H1123       H  0.49794836  0.83403360  0.65939238     0.43160
H1124       H  0.95852833  0.67488488  0.58940460     0.39580
H1125       H  0.88519929  0.01975195  0.42497367     0.44490
H1126       H  0.95389983  0.94362593  0.63854184     0.43220
H1127       H  0.98284352  0.67327667  0.56981676     0.43350
H1128       H  0.87083525  0.72295995  0.35347814     0.43710
O1129       O  0.78957369  0.49100549  0.13901346    -0.75160
O1130       O  0.76348416  0.43485116  0.16251124    -0.54070
C1131       C  0.77196259  0.48019139  0.15925462     0.78570
O1132       O  0.79211089  0.31397128  0.94850645    -0.59760
O1133       O  0.83629239  0.31124667  0.97133473    -0.52790
C1134       C  0.81445857  0.30971710  0.94061109     0.70580
O1135       O  0.73101799  0.33595536  0.01942970    -0.74320
O1136       O  0.73518328  0.38775701  0.08125887    -0.54880
C1137       C  0.72335587  0.37322222  0.04000970     0.76590
O1138       O  0.84140237  0.47711437  0.05665947    -0.59460
O1139       O  0.86506417  0.41052982  0.03712822    -0.52580
C1140       C  0.85940289  0.46054751  0.04055976     0.73180
Zr1141     Zr  0.81524019  0.44099178  0.09629036     2.54710
O1142       O  0.79146875  0.50807228  0.04815268    -0.80030
O1143       O  0.84722771  0.49810344  0.14629535    -0.93450
Zr1144     Zr  0.77436420  0.33128343  0.01209671     2.64680
O1145       O  0.75893922  0.38691985  0.94803807    -0.98400
O1146       O  0.74961672  0.25817758  0.97072946    -0.80460
O1147       O  0.77600900  0.39658770  0.07004690    -0.83820
O1148       O  0.81263249  0.38155539  0.03316131    -2.18530
O1149       O  0.89552257  0.32611489  0.16282349    -0.67210
O1150       O  0.89203469  0.31447051  0.08742969    -0.51770
C1151       C  0.90564327  0.31891595  0.12860689     0.71560
O1152       O  0.75582424  0.21841106  0.12351016    -0.60120
O1153       O  0.74923410  0.29243256  0.15958886    -0.52090
C1154       C  0.74153798  0.24844611  0.14228624     0.73360
O1155       O  0.82844782  0.17323998  0.07758328    -0.71510
O1156       O  0.85498762  0.22056715  0.04510589    -0.50190
C1157       C  0.84630660  0.17649998  0.05699747     0.74750
O1158       O  0.83157902  0.33595012  0.24130671    -0.66840
O1159       O  0.78771997  0.35126024  0.21895823    -0.54040
C1160       C  0.80923373  0.34316027  0.24932107     0.73130
Zr1161     Zr  0.85066938  0.33197639  0.17734396     2.77540
O1162       O  0.87031935  0.25859151  0.22199332    -0.97590
O1163       O  0.87721345  0.39427824  0.23081785    -0.78410
Zr1164     Zr  0.79967444  0.22909653  0.10402509     2.70070
O1165       O  0.81361916  0.17257842  0.16821077    -0.79660
O1166       O  0.77462344  0.16221059  0.05344599    -0.98740
Zr1167     Zr  0.77501483  0.35364601  0.13659398     2.21500
Zr1168     Zr  0.84649892  0.31943614  0.05308260     2.11130
O1169       O  0.84206324  0.27130076  0.11717207    -2.47430
O1170       O  0.80848812  0.29167093  0.16252956    -0.79450
O1171       O  0.85078211  0.38122239  0.11397494    -0.71650
O1172       O  0.76831197  0.29099500  0.07659666    -2.32600
O1173       O  0.81639137  0.39470993  0.16059578    -2.28810
O1174       O  0.80668466  0.27010190  0.03812462    -0.73410
H1175       H  0.81397548  0.40018405  0.00694604     0.78590
H1176       H  0.75123794  0.27561950  0.06812702     0.79680
H1177       H  0.85576809  0.24607618  0.12530689     0.81900
H1178       H  0.81763379  0.41772419  0.18644329     0.79510
H1179       H  0.73445523  0.27384438  0.94920528     0.42550
H1180       H  0.77959885  0.16523492  0.02466035     0.41520
H1181       H  0.80800764  0.19035468  0.19303706     0.41190
H1182       H  0.88279632  0.24389411  0.20620270     0.39130
H1183       H  0.88259830  0.41979607  0.21150519     0.42260
H1184       H  0.84514327  0.49261384  0.17702142     0.37040
H1185       H  0.78598440  0.49164510  0.01750312     0.43160
H1186       H  0.76122562  0.42245621  0.96107708     0.39580
H1187       H  0.88141484  0.27430095  0.25040894     0.44490
H1188       H  0.84047211  0.53335030  0.13882282     0.43220
H1189       H  0.73997758  0.38044085  0.93757987     0.43350
H1190       H  0.78221779  0.12907039  0.06598184     0.43710
O1191       O  0.79625888  0.48098316  0.66130544    -0.75160
O1192       O  0.77454003  0.41724338  0.68591387    -0.54070
C1193       C  0.78066904  0.46432972  0.68370303     0.78570
O1194       O  0.79053791  0.34731648  0.45009815    -0.59760
O1195       O  0.83325479  0.32422894  0.46777664    -0.52790
C1196       C  0.81156972  0.33513964  0.43923624     0.70580
O1197       O  0.73384528  0.37813173  0.53127493    -0.74320
O1198       O  0.73562081  0.37843398  0.60678270    -0.54880
C1199       C  0.72400651  0.38585528  0.56472585     0.76590
O1200       O  0.86418415  0.45481048  0.60172227    -0.59460
O1201       O  0.86231902  0.41506447  0.53544077    -0.52580
C1202       C  0.86581641  0.45749682  0.56140688     0.73180
Zr1203     Zr  0.82325806  0.43865862  0.61611300     2.54710
O1204       O  0.80523366  0.51021624  0.56742803    -0.80030
O1205       O  0.84953150  0.49651433  0.67496034    -0.93450
Zr1206     Zr  0.77487190  0.35720628  0.51766045     2.64680
O1207       O  0.76332570  0.43789361  0.47838763    -0.98400
O1208       O  0.74164247  0.30965563  0.46094414    -0.80460
O1209       O  0.78147402  0.40311336  0.58847278    -0.83820
O1210       O  0.81629982  0.39414437  0.54354056    -2.18530
O1211       O  0.89419870  0.30392002  0.65578791    -0.67210
O1212       O  0.89197056  0.31419200  0.58115443    -0.51770
C1213       C  0.90489983  0.30726363  0.62231757     0.71560
O1214       O  0.75102588  0.21725949  0.60175745    -0.60120
O1215       O  0.74497795  0.28448872  0.64723381    -0.52090
C1216       C  0.73717535  0.24308802  0.62426707     0.73360
O1217       O  0.81575067  0.18339233  0.53375529    -0.71510
O1218       O  0.85412874  0.22390261  0.53802496    -0.50190
C1219       C  0.83997753  0.18142480  0.53592439     0.74750
O1220       O  0.83598467  0.31048802  0.74191407    -0.66840
O1221       O  0.79197729  0.32265201  0.72360899    -0.54040
C1222       C  0.81422184  0.31518474  0.75220048     0.73130
Zr1223     Zr  0.85086259  0.30748142  0.67382651     2.77540
O1224       O  0.86384166  0.22170448  0.70216616    -0.97590
O1225       O  0.88498662  0.34731351  0.73427555    -0.78410
Zr1226     Zr  0.79476669  0.22863846  0.58369536     2.70070
O1227       O  0.81118618  0.16020980  0.63664455    -0.79660
O1228       O  0.76570749  0.16539413  0.53502220    -0.98740
Zr1229     Zr  0.77852375  0.34263574  0.64353454     2.21500
Zr1230     Zr  0.84590901  0.32245130  0.54939979     2.11130
O1231       O  0.83891520  0.26245314  0.60452374    -2.47430
O1232       O  0.80742790  0.27146141  0.65499990    -0.79450
O1233       O  0.85371324  0.36917218  0.62043740    -0.71650
O1234       O  0.76746757  0.30014230  0.57131339    -2.32600
O1235       O  0.82126356  0.37758681  0.67014041    -2.28810
O1236       O  0.80271118  0.28523889  0.52716278    -0.73410
H1237       H  0.81736272  0.41764674  0.52016722     0.78590
H1238       H  0.74932253  0.29092810  0.56038215     0.79680
H1239       H  0.85106132  0.23422398  0.61038579     0.81900
H1240       H  0.82409997  0.39479217  0.69943867     0.79510
H1241       H  0.74519319  0.27291911  0.46840493     0.42550
H1242       H  0.76533667  0.17431127  0.50359908     0.41520
H1243       H  0.79545635  0.14044834  0.63757957     0.41190
H1244       H  0.87630288  0.20944949  0.68533003     0.39130
H1245       H  0.89538716  0.31801097  0.74955113     0.42260
H1246       H  0.84404734  0.48931287  0.70265533     0.37040
H1247       H  0.80898890  0.50254443  0.53797901     0.43160
H1248       H  0.75758701  0.46081492  0.50025603     0.39580
H1249       H  0.87459495  0.22790470  0.73362201     0.44490
H1250       H  0.86748012  0.48281511  0.68172186     0.43220
H1251       H  0.74715514  0.42948814  0.45454555     0.43350
H1252       H  0.77493454  0.13194764  0.54012384     0.43710
O1253       O  0.57586719  0.00627085  0.19213276    -0.75160
O1254       O  0.55356329  0.98443178  0.23948004    -0.54070
C1255       C  0.56024015  0.97552913  0.20254337     0.78570
O1256       O  0.64551137  0.16390347  0.19962729    -0.59760
O1257       O  0.62068838  0.23255710  0.16787122    -0.52790
C1258       C  0.64130045  0.20329428  0.17429123     0.70580
O1259       O  0.63566441  0.03171775  0.27697878    -0.74320
O1260       O  0.60471823  0.00259139  0.30930755    -0.54880
C1261       C  0.62590572  0.99752446  0.29742320     0.76590
O1262       O  0.56761001  0.12414948  0.09708422    -0.59460
O1263       O  0.57379086  0.21096311  0.10597302    -0.52580
C1264       C  0.57180917  0.16825042  0.08232503     0.73180
Zr1265     Zr  0.55767709  0.08659687  0.16154482     2.54710
O1266       O  0.55618140  0.03035317  0.09595952    -0.80030
O1267       O  0.51131232  0.09887504  0.12571473    -0.93450
Zr1268     Zr  0.62599472  0.11927537  0.25054869     2.64680
O1269       O  0.66024466  0.06796602  0.23146410    -0.98400
O1270       O  0.66075420  0.15292091  0.31346810    -0.80460
O1271       O  0.59045605  0.06114050  0.22732270    -0.83820
O1272       O  0.59440691  0.14041516  0.18199624    -2.18530
O1273       O  0.50747169  0.24492281  0.19773770    -0.67210
O1274       O  0.53537786  0.27366339  0.15812250    -0.51770
C1275       C  0.51331032  0.27456791  0.16948028     0.71560
O1276       O  0.58240443  0.17030253  0.37859588    -0.60120
O1277       O  0.57239262  0.08460904  0.36738020    -0.52090
C1278       C  0.57643206  0.12682543  0.39174608     0.73360
O1279       O  0.59343629  0.29838636  0.29787966    -0.71510
O1280       O  0.58659604  0.31021921  0.22188889    -0.50190
C1281       C  0.58946437  0.32681251  0.26289711     0.74750
O1282       O  0.50455095  0.12253394  0.28508736    -0.66840
O1283       O  0.53096990  0.05557790  0.31327515    -0.54040
C1284       C  0.51010762  0.08216521  0.30871402     0.73130
Zr1285     Zr  0.52402362  0.16892472  0.23478019     2.77540
O1286       O  0.51597526  0.21457004  0.30048268    -0.97590
O1287       O  0.98184080  0.15045845  0.18145431    -0.78410
Zr1288     Zr  0.59181227  0.20773599  0.31419673     2.70070
O1289       O  0.56574500  0.24669593  0.36056093    -0.79660
O1290       O  0.63609148  0.22856454  0.35774626    -0.98740
Zr1291     Zr  0.57002365  0.06305346  0.28721321     2.21500
Zr1292     Zr  0.57797015  0.22524650  0.18751994     2.11130
O1293       O  0.55822404  0.23025801  0.25025503    -2.47430
O1294       O  0.56766194  0.14692215  0.26092205    -0.79450
O1295       O  0.54093991  0.16926128  0.17029627    -0.71650
O1296       O  0.60678065  0.12108798  0.31242689    -2.32600
O1297       O  0.53589106  0.08294063  0.22127577    -2.28810
O1298       O  0.61235125  0.20687084  0.25540126    -0.73410
H1299       H  0.60322987  0.13688339  0.15846551     0.78590
H1300       H  0.61876398  0.11117821  0.34056882     0.79680
H1301       H  0.55104485  0.26379988  0.25399418     0.81900
H1302       H  0.52131683  0.05926032  0.21528724     0.79510
H1303       H  0.66957036  0.12173633  0.32818394     0.42550
H1304       H  0.64101040  0.25927051  0.34322239     0.41520
H1305       H  0.57578872  0.27759398  0.37510053     0.41190
H1306       H  0.52181992  0.25046999  0.29855861     0.39130
H1307       H  0.98181189  0.16864559  0.15339762     0.42260
H1308       H  0.50014394  0.07555663  0.13740442     0.37040
H1309       H  0.57385118  0.01540247  0.10173658     0.43160
H1310       H  0.65318620  0.05786553  0.19913456     0.39580
H1311       H  0.99674935  0.21775010  0.29339387     0.44490
H1312       H  0.50875761  0.08926603  0.09342052     0.43220
H1313       H  0.67492494  0.09176275  0.23252381     0.43350
H1314       H  0.63420869  0.24178011  0.38735041     0.43710
O1315       O  0.53470962  0.04924471  0.71407878    -0.75160
O1316       O  0.55702929  0.99651948  0.76161393    -0.54070
C1317       C  0.54162346  0.00335706  0.72265144     0.78570
O1318       O  0.64265125  0.17953545  0.69554543    -0.59760
O1319       O  0.61506909  0.23509902  0.64988522    -0.52790
C1320       C  0.63749334  0.21156229  0.66342834     0.70580
O1321       O  0.63274437  0.05111164  0.77450224    -0.74320
O1322       O  0.61347761  0.05281145  0.83110856    -0.54880
C1323       C  0.62711456  0.03060862  0.80790893     0.76590
O1324       O  0.56237991  0.11316679  0.59202323    -0.59460
O1325       O  0.56645966  0.20078473  0.59199623    -0.52580
C1326       C  0.56521932  0.15535660  0.57295218     0.73180
Zr1327     Zr  0.55459969  0.08876910  0.66292829     2.54710
O1328       O  0.57223178  0.01019139  0.63772609    -0.80030
O1329       O  0.51257007  0.08139694  0.60672539    -0.93450
Zr1330     Zr  0.62161541  0.13241217  0.74167705     2.64680
O1331       O  0.64768350  0.07741085  0.70565093    -0.98400
O1332       O  0.66049316  0.16275544  0.79823350    -0.80460
O1333       O  0.58773767  0.06819153  0.73022889    -0.83820
O1334       O  0.59048796  0.14421347  0.67126426    -2.18530
O1335       O  0.52552776  0.23124898  0.67408961    -0.67210
O1336       O  0.53388511  0.28277319  0.62966776    -0.51770
C1337       C  0.51639747  0.26632769  0.64724238     0.71560
O1338       O  0.58437988  0.19509065  0.87947056    -0.60120
O1339       O  0.57929376  0.10779976  0.87599038    -0.52090
C1340       C  0.58217412  0.15172349  0.89763441     0.73360
O1341       O  0.60398376  0.30000160  0.78137017    -0.71510
O1342       O  0.58560292  0.31124224  0.70590434    -0.50190
C1343       C  0.59698826  0.32760334  0.74625833     0.74750
O1344       O  0.99907979  0.11595988  0.77075837    -0.66840
O1345       O  0.52992346  0.06346053  0.81364422    -0.54040
C1346       C  0.00653063  0.08105003  0.80064804     0.73130
Zr1347     Zr  0.51952962  0.17913116  0.73181080     2.77540
O1348       O  0.50215601  0.24758679  0.77227168    -0.97590
O1349       O  0.97939464  0.14279145  0.68283480    -0.78410
Zr1350     Zr  0.58567514  0.22510975  0.80555269     2.70070
O1351       O  0.56028391  0.29167026  0.83163777    -0.79660
O1352       O  0.62592150  0.24489402  0.86396349    -0.98740
Zr1353     Zr  0.57090665  0.08290521  0.79611379     2.21500
Zr1354     Zr  0.57221200  0.22855285  0.67152631     2.11130
O1355       O  0.55305834  0.24232320  0.73724624    -2.47430
O1356       O  0.55101069  0.16462341  0.80090336    -0.79450
O1357       O  0.53511399  0.16974070  0.66414935    -0.71650
O1358       O  0.60577486  0.14377424  0.80682956    -2.32600
O1359       O  0.55680982  0.13237208  0.73213231    -2.28810
O1360       O  0.60442459  0.21624204  0.74281230    -0.73410
H1361       H  0.59960802  0.13835712  0.64830141     0.78590
H1362       H  0.61938290  0.14177906  0.83481231     0.79680
H1363       H  0.54728035  0.27749657  0.73983004     0.81900
H1364       H  0.57040501  0.15737210  0.73507879     0.79510
H1365       H  0.66716438  0.13191724  0.81606006     0.42550
H1366       H  0.63683012  0.26587207  0.84951896     0.41520
H1367       H  0.55263799  0.27449083  0.85363260     0.41190
H1368       H  0.51142928  0.27972433  0.76906949     0.39130
H1369       H  0.98059942  0.14867073  0.65162759     0.42260
H1370       H  0.00823779  0.11703782  0.59551059     0.37040
H1371       H  0.59135522  0.01459574  0.64875115     0.43160
H1372       H  0.64209062  0.08433322  0.67283868     0.39580
H1373       H  0.00873088  0.23931504  0.80473304     0.44490
H1374       H  0.51633374  0.06251881  0.58065092     0.43220
H1375       H  0.66573959  0.09065118  0.71671299     0.43350
H1376       H  0.62096590  0.26871876  0.88602541     0.43710
C1377       C  0.57290363  0.12870262  0.43797306    -0.00020
C1378       C  0.55372466  0.16218421  0.44583230    -0.11900
C1379       C  0.55073511  0.17145291  0.48938093     0.02210
C1380       C  0.56829277  0.14935534  0.52663173    -0.00110
C1381       C  0.58828788  0.11731501  0.51928919    -0.11840
C1382       C  0.59089338  0.10733717  0.47535473     0.02100
H1383       H  0.54160183  0.18244676  0.41765319     0.15080
H1384       H  0.60212540  0.10072826  0.54806983     0.15080
C1385       C  0.61331464  0.07916320  0.46986256     0.36730
C1386       C  0.52896959  0.20184568  0.49488100     0.36640
N1387       N  0.63155174  0.05734104  0.46566685    -0.43610
N1388       N  0.01102150  0.22463722  0.49917565    -0.43610
C1389       C  0.57494624  0.16653164  0.03520086    -0.00020
C1390       C  0.56709551  0.12083183  0.00893264    -0.11900
C1391       C  0.57084878  0.11359056  0.96582197     0.02210
C1392       C  0.58168055  0.15380507  0.94622828    -0.00110
C1393       C  0.59002094  0.19931651  0.97261964    -0.11840
C1394       C  0.58710970  0.20567315  0.01679411     0.02100
H1395       H  0.55783790  0.08976333  0.02202898     0.15080
H1396       H  0.59890044  0.23032777  0.95874057     0.15080
C1397       C  0.59746717  0.25193028  0.04258771     0.36730
C1398       C  0.56236489  0.06483646  0.94245395     0.36640
N1399       N  0.60591775  0.28890245  0.06331935    -0.43610
N1400       N  0.55549897  0.02568045  0.92407948    -0.43610
C1401       C  0.98849984  0.28348525  0.64057897    -0.00020
C1402       C  0.97503537  0.26237428  0.66970252    -0.11900
C1403       C  0.94869350  0.27137694  0.66602512     0.02210
C1404       C  0.93399078  0.30169218  0.63086795    -0.00110
C1405       C  0.94727796  0.32388609  0.60128670    -0.11840
C1406       C  0.97425897  0.31546707  0.60615293     0.02100
H1407       H  0.98499487  0.23644466  0.69503458     0.15080
H1408       H  0.93652301  0.34752107  0.57391596     0.15080
C1409       C  0.98650350  0.33840748  0.57463368     0.36730
C1410       C  0.93731374  0.24616090  0.69777050     0.36640
N1411       N  0.99633969  0.35685255  0.54933483    -0.43610
N1412       N  0.92870226  0.22572834  0.72372405    -0.43610
C1413       C  0.70964288  0.22882033  0.62262926    -0.00020
C1414       C  0.69029694  0.26773200  0.61232034    -0.11900
C1415       C  0.66573558  0.26236082  0.62148106     0.02210
C1416       C  0.66007741  0.21753894  0.64223813    -0.00110
C1417       C  0.67869729  0.17692984  0.64823490    -0.11840
C1418       C  0.70314062  0.18237415  0.63937561     0.02100
H1419       H  0.69495371  0.30386969  0.59919990     0.15080
H1420       H  0.67483849  0.14096515  0.66225962     0.15080
C1421       C  0.72209101  0.14172495  0.65198074     0.36730
C1422       C  0.64740206  0.30423311  0.61126283     0.36640
N1423       N  0.73736368  0.10934764  0.66241075    -0.43610
N1424       N  0.63262642  0.33771529  0.60264018    -0.43610
C1425       C  0.81501418  0.31193447  0.80060454    -0.00020
C1426       C  0.79376556  0.29003433  0.81232156    -0.11900
C1427       C  0.79344444  0.28683461  0.85765479     0.02210
C1428       C  0.81487913  0.30584488  0.89252126    -0.00110
C1429       C  0.83634295  0.32668358  0.88070482    -0.11840
C1430       C  0.83650235  0.33048702  0.83542198     0.02100
H1431       H  0.77730126  0.27524407  0.78590633     0.15080
H1432       H  0.85262778  0.34251603  0.90688714     0.15080
C1433       C  0.85821798  0.35719796  0.82620387     0.36730
C1434       C  0.77086509  0.26339344  0.86679882     0.36640
N1435       N  0.87572925  0.37925470  0.81988094    -0.43610
N1436       N  0.75255018  0.24454064  0.87323774    -0.43610
C1437       C  0.81054649  0.33489722  0.39032722    -0.00020
C1438       C  0.79216366  0.36640305  0.36141323    -0.11900
C1439       C  0.79096089  0.36932341  0.31532590     0.02210
C1440       C  0.80860284  0.34052498  0.29727852    -0.00110
C1441       C  0.82652815  0.30808879  0.32592136    -0.11840
C1442       C  0.82751507  0.30466666  0.37180282     0.02100
H1443       H  0.77893096  0.38979160  0.37498797     0.15080
H1444       H  0.83971628  0.28463753  0.31227240     0.15080
C1445       C  0.84551588  0.26836908  0.39835437     0.36730
C1446       C  0.77200790  0.40350805  0.28803395     0.36640
N1447       N  0.85988753  0.23907553  0.41943698    -0.43610
N1448       N  0.75668648  0.43076638  0.26633494    -0.43610
C1449       C  0.93483990  0.31531226  0.13513353    -0.00020
C1450       C  0.95238769  0.34318410  0.17027037    -0.11900
C1451       C  0.97966208  0.33920114  0.17678621     0.02210
C1452       C  0.99031741  0.30674186  0.14813446    -0.00110
C1453       C  0.97274692  0.28316673  0.11053394    -0.11840
C1454       C  0.94560359  0.28589038  0.10442773     0.02100
H1455       H  0.94487166  0.36704119  0.19351568     0.15080
H1456       H  0.98026659  0.25636069  0.08928160     0.15080
C1457       C  0.92959298  0.25328404  0.06878715     0.36730
C1458       C  0.99662291  0.36467077  0.21611923     0.36640
N1459       N  0.91689877  0.22684119  0.04038466    -0.43610
N1460       N  0.51020437  0.38504288  0.24767344    -0.43610
C1461       C  0.66314578  0.21517968  0.15392828    -0.00020
C1462       C  0.67215028  0.26572982  0.15647947    -0.11900
C1463       C  0.69671203  0.27700224  0.15055622     0.02210
C1464       C  0.71382030  0.23651137  0.14300824    -0.00110
C1465       C  0.70353346  0.18626108  0.13578498    -0.11840
C1466       C  0.67837119  0.17556420  0.14046408     0.02100
H1467       H  0.66050772  0.29656133  0.16562993     0.15080
H1468       H  0.71521679  0.15519053  0.12727453     0.15080
C1469       C  0.66822974  0.12378867  0.12979444     0.36730
C1470       C  0.70331582  0.33136997  0.15317783     0.36640
N1471       N  0.66006381  0.08245352  0.12013808    -0.43610
N1472       N  0.70825876  0.37503461  0.15573534    -0.43610
C1473       C  0.52598464  0.91473575  0.59621880    -0.00020
C1474       C  0.51087007  0.95654854  0.60365057    -0.11900
C1475       C  0.51337109  0.97767407  0.64710905     0.02210
C1476       C  0.53481369  0.96538375  0.68349214    -0.00110
C1477       C  0.55130878  0.92522300  0.67646452    -0.11840
C1478       C  0.54635295  0.89865476  0.63369436     0.02100
H1479       H  0.99538806  0.97014566  0.57615410     0.15080
H1480       H  0.56813134  0.91530503  0.70364042     0.15080
C1481       C  0.56286655  0.85603390  0.62859089     0.36730
C1482       C  0.99283250  0.01092264  0.65443543     0.36640
N1483       N  0.57643804  0.82223573  0.62478038    -0.43610
N1484       N  0.97645213  0.03691923  0.66101955    -0.43610
C1485       C  0.96571507  0.01024738  0.38509746    -0.00020
C1486       C  0.47785222  0.05744358  0.40121628    -0.11900
C1487       C  0.48872085  0.08647198  0.37275336     0.02210
C1488       C  0.99099922  0.06385938  0.33159869    -0.00110
C1489       C  0.97558518  0.02078542  0.31336772    -0.11840
C1490       C  0.96111458  0.99676590  0.33899303     0.02100
H1491       H  0.47836300  0.07179218  0.43504068     0.15080
H1492       H  0.97439231  0.00709792  0.27916045     0.15080
C1493       C  0.93896888  0.96490119  0.31702586     0.36730
C1494       C  0.49284121  0.14102006  0.38196956     0.36640
N1495       N  0.92017251  0.94178940  0.30011202    -0.43610
N1496       N  0.49401623  0.18539744  0.38771770    -0.43610
C1497       C  0.87976322  0.62353900  0.53360470    -0.00020
C1498       C  0.88855933  0.58142300  0.51003623    -0.11900
C1499       C  0.88377413  0.52810366  0.51645223     0.02210
C1500       C  0.86976064  0.51361537  0.54735904    -0.00110
C1501       C  0.86041485  0.55568910  0.56992351    -0.11840
C1502       C  0.86465184  0.60894712  0.56274881     0.02100
H1503       H  0.90020652  0.58995085  0.48697348     0.15080
H1504       H  0.85000206  0.54715298  0.59476603     0.15080
C1505       C  0.85382145  0.64769089  0.58694164     0.36730
C1506       C  0.89530320  0.48903040  0.49361115     0.36640
N1507       N  0.84476630  0.67856879  0.60605551    -0.43610
N1508       N  0.90474120  0.45758748  0.47564578    -0.43610
C1509       C  0.86445130  0.01545366  0.53525563    -0.00020
C1510       C  0.87703826  0.05590886  0.51795943    -0.11900
C1511       C  0.87126369  0.10926406  0.52074422     0.02210
C1512       C  0.85048636  0.12553785  0.53782709    -0.00110
C1513       C  0.83760880  0.08552413  0.55536842    -0.11840
C1514       C  0.84445592  0.03192921  0.55464652     0.02100
H1515       H  0.89089463  0.04596043  0.49931853     0.15080
H1516       H  0.82153004  0.09591771  0.56923277     0.15080
C1517       C  0.82925087  0.99437899  0.57050784     0.36730
C1518       C  0.88640920  0.14607180  0.50383358     0.36640
N1519       N  0.81697658  0.96413518  0.58302222    -0.43610
N1520       N  0.89893987  0.17533668  0.49080338    -0.43610
C1521       C  0.92339680  0.81664174  0.78979174    -0.00020
C1522       C  0.90001526  0.80352082  0.75700218    -0.11900
C1523       C  0.89792224  0.80567178  0.71054178     0.02210
C1524       C  0.91969629  0.82048262  0.69575721    -0.00110
C1525       C  0.94320781  0.83235925  0.72861803    -0.11840
C1526       C  0.94530706  0.83072937  0.77482542     0.02100
H1527       H  0.88290032  0.79260345  0.76747312     0.15080
H1528       H  0.96026638  0.84438348  0.71846029     0.15080
C1529       C  0.97006852  0.84590996  0.80531371     0.36730
C1530       C  0.87306232  0.79328523  0.67936073     0.36640
N1531       N  0.48984068  0.85902574  0.82944185    -0.43610
N1532       N  0.85298457  0.78376421  0.65463642    -0.43610
C1533       C  0.93940838  0.81372512  0.29503404    -0.00020
C1534       C  0.95053046  0.85388033  0.27688263    -0.11900
C1535       C  0.94267628  0.86330628  0.23027012     0.02210
C1536       C  0.92515881  0.82907938  0.19971561    -0.00110
C1537       C  0.91616749  0.78563132  0.21743645    -0.11840
C1538       C  0.92315888  0.77769195  0.26445556     0.02100
H1539       H  0.96366766  0.88072542  0.29956607     0.15080
H1540       H  0.90407841  0.75736384  0.19455376     0.15080
C1541       C  0.91419955  0.73107629  0.28049603     0.36730
C1542       C  0.95146329  0.91073500  0.21516899     0.36640
N1543       N  0.90729349  0.69336958  0.29323821    -0.43610
N1544       N  0.95816092  0.94891079  0.20288319    -0.43610
C1545       C  0.52398485  0.90904422  0.07267195    -0.00020
C1546       C  0.54424593  0.88167728  0.10182416    -0.11900
C1547       C  0.55602937  0.90046012  0.14617230     0.02210
C1548       C  0.54502370  0.94297996  0.16430639    -0.00110
C1549       C  0.52423129  0.96845902  0.13532265    -0.11840
C1550       C  0.51555591  0.95499942  0.08910702     0.02100
H1551       H  0.55081607  0.84562572  0.08989720     0.15080
H1552       H  0.01687245  0.00255982  0.14796061     0.15080
C1553       C  0.99987387  0.99093391  0.05809167     0.36730
C1554       C  0.57966861  0.87637082  0.17141740     0.36640
N1555       N  0.98812006  0.02042246  0.03293610    -0.43610
N1556       N  0.59882756  0.85665667  0.19043407    -0.43610
C1557       C  0.95611572  0.01048726  0.87251108    -0.00020
C1558       C  0.97338395  0.05023369  0.89333837    -0.11900
C1559       C  0.48849716  0.07583937  0.86913950     0.02210
C1560       C  0.98732512  0.06098241  0.82380555    -0.00110
C1561       C  0.96865212  0.02423915  0.80187549    -0.11840
C1562       C  0.95330127  0.99886624  0.82592535     0.02100
H1563       H  0.47614903  0.05930631  0.92915161     0.15080
H1564       H  0.96658725  0.01431704  0.76641885     0.15080
C1565       C  0.93284978  0.96452812  0.80137167     0.36730
C1566       C  0.50461666  0.11880989  0.89092495     0.36640
N1567       N  0.91597408  0.93792460  0.78171691    -0.43610
N1568       N  0.51696423  0.15420561  0.90790657    -0.43610
C1569       C  0.87288934  0.50840651  0.02896050    -0.00020
C1570       C  0.89381612  0.53000719  0.06302426    -0.11900
C1571       C  0.89885123  0.58435134  0.06823221     0.02210
C1572       C  0.88267054  0.62111012  0.03984440    -0.00110
C1573       C  0.86230913  0.59968816  0.00468420    -0.11840
C1574       C  0.85733291  0.54523851  0.99939836     0.02100
H1575       H  0.90530983  0.50453534  0.08814868     0.15080
H1576       H  0.85031102  0.62554629  0.98055786     0.15080
C1577       C  0.83444981  0.52796359  0.96507676     0.36730
C1578       C  0.92080118  0.60173104  0.10439029     0.36640
N1579       N  0.81598137  0.51409213  0.93789459    -0.43610
N1580       N  0.93841947  0.61542686  0.13346050    -0.43610
C1581       C  0.85712253  0.00935890  0.04132449    -0.00020
C1582       C  0.87464177  0.03849088  0.07608106    -0.11900
C1583       C  0.87342267  0.09376729  0.07922317     0.02210
C1584       C  0.85508203  0.12259839  0.04646294    -0.00110
C1585       C  0.83739832  0.09324783  0.01257363    -0.11840
C1586       C  0.83807832  0.03855176  0.00993691     0.02100
H1587       H  0.89000771  0.01836854  0.09992713     0.15080
H1588       H  0.82185039  0.11327977  0.98894398     0.15080
C1589       C  0.81859292  0.01293747  0.97388436     0.36730
C1590       C  0.89105601  0.12037880  0.11702266     0.36640
N1591       N  0.80304064  0.99247756  0.94491711    -0.43610
N1592       N  0.90517516  0.14185202  0.14733765    -0.43610
C1593       C  0.70450410  0.40564792  0.00883063    -0.00020
C1594       C  0.71600214  0.44294091  0.98784410    -0.11900
C1595       C  0.70502950  0.45565285  0.94252373     0.02210
C1596       C  0.68018769  0.43686141  0.91905217    -0.00110
C1597       C  0.66776683  0.40205666  0.94121075    -0.11840
C1598       C  0.68010320  0.38496053  0.98487965     0.02100
H1599       H  0.73526317  0.45752222  0.00509990     0.15080
H1600       H  0.64809291  0.38935735  0.92484748     0.15080
C1601       C  0.66767393  0.34558443  0.00445695     0.36730
C1602       C  0.72006043  0.48715010  0.92037144     0.36640
N1603       N  0.65776791  0.31397530  0.02021177    -0.43610
N1604       N  0.73265606  0.51150201  0.90302245    -0.43610
C1605       C  0.73473595  0.53522299  0.76168442    -0.00020
C1606       C  0.76130591  0.54931368  0.77132273    -0.11900
C1607       C  0.77700656  0.53076853  0.74397343     0.02210
C1608       C  0.76581752  0.49921087  0.70574437    -0.00110
C1609       C  0.73915190  0.48811433  0.69479750    -0.11840
C1610       C  0.72372924  0.50440378  0.72223458     0.02100
H1611       H  0.77004158  0.57332560  0.80100690     0.15080
H1612       H  0.73061867  0.46237788  0.66612210     0.15080
C1613       C  0.69699365  0.48645144  0.70867770     0.36730
C1614       C  0.80456354  0.54166149  0.75729019     0.36640
N1615       N  0.67585605  0.47077825  0.69719244    -0.43610
N1616       N  0.82667553  0.55046240  0.76813253    -0.43610
C1617       C  0.79915121  0.79230082  0.94640663    -0.00020
C1618       C  0.78752174  0.77221266  0.97884042    -0.11900
C1619       C  0.76026513  0.76818461  0.97072452     0.02210
C1620       C  0.74373196  0.78503202  0.92960455    -0.00110
C1621       C  0.75528366  0.80749636  0.89819093    -0.11840
C1622       C  0.78248309  0.81142452  0.90614135     0.02100
H1623       H  0.79983102  0.75783036  0.01025209     0.15080
H1624       H  0.74289726  0.82024261  0.86616168     0.15080
C1625       C  0.79248739  0.83641558  0.87264885     0.36730
C1626       C  0.74996537  0.74217309  0.00331386     0.36640
N1627       N  0.80003918  0.85698012  0.84549490    -0.43610
N1628       N  0.74189008  0.72063570  0.02934329    -0.43610
C1629       C  0.52353881  0.74068829  0.96442400    -0.00020
C1630       C  0.54732738  0.75959862  0.99288200    -0.11900
C1631       C  0.57052378  0.75791758  0.97858449     0.02210
C1632       C  0.56965915  0.73910272  0.93451700    -0.00110
C1633       C  0.54523812  0.72311158  0.90595233    -0.11840
C1634       C  0.52292335  0.72166600  0.92092618     0.02100
H1635       H  0.54755697  0.77740277  0.02543709     0.15080
H1636       H  0.54346985  0.70999427  0.87129020     0.15080
C1637       C  0.99894135  0.70353994  0.88958937     0.36730
C1638       C  0.59448784  0.77658700  0.00898715     0.36640
N1639       N  0.97972546  0.68914580  0.86468722    -0.43610
N1640       N  0.61363640  0.79207475  0.03335446    -0.43610
C1641       C  0.59088626  0.48815636  0.75657182    -0.00020
C1642       C  0.59206458  0.45896524  0.79458281    -0.11900
C1643       C  0.59745110  0.40698460  0.79400951     0.02210
C1644       C  0.59987891  0.38296609  0.75324759    -0.00110
C1645       C  0.59878311  0.41262345  0.71515332    -0.11840
C1646       C  0.59416736  0.46511043  0.71653323     0.02100
H1647       H  0.58998327  0.47724459  0.82572922     0.15080
H1648       H  0.60039152  0.39444962  0.68365572     0.15080
C1649       C  0.59113276  0.49369442  0.67572934     0.36730
C1650       C  0.59985024  0.38059362  0.83589587     0.36640
N1651       N  0.58805152  0.51557146  0.64231002    -0.43610
N1652       N  0.60180003  0.36147030  0.87035449    -0.43610
C1653       C  0.63488300  0.87107952  0.82256695    -0.00020
C1654       C  0.64604715  0.89423962  0.79185589    -0.11900
C1655       C  0.64492855  0.94676100  0.78744171     0.02210
C1656       C  0.63273229  0.97663854  0.81535267    -0.00110
C1657       C  0.62093802  0.95236136  0.84544952    -0.11840
C1658       C  0.62119130  0.89951882  0.84814226     0.02100
H1659       H  0.65634083  0.87121436  0.77200678     0.15080
H1660       H  0.61038709  0.97416275  0.86554955     0.15080
C1661       C  0.60636626  0.87553520  0.87555457     0.36730
C1662       C  0.65623366  0.96670645  0.75333039     0.36640
N1663       N  0.59418477  0.85680855  0.89714110    -0.43610
N1664       N  0.66555399  0.97935497  0.72521187    -0.43610
C1665       C  0.65559016  0.60339311  0.55528447    -0.00020
C1666       C  0.67849590  0.61078438  0.59075761    -0.11900
C1667       C  0.67823032  0.60945659  0.63658960     0.02210
C1668       C  0.65484181  0.59965497  0.64837536    -0.00110
C1669       C  0.63200178  0.59217264  0.61335176    -0.11840
C1670       C  0.63212500  0.59310912  0.56740769     0.02100
H1671       H  0.69671946  0.61893675  0.58281333     0.15080
H1672       H  0.61369799  0.58819706  0.62189572     0.15080
C1673       C  0.60749586  0.58571244  0.53389088     0.36730
C1674       C  0.70191937  0.62201468  0.67094226     0.36640
N1675       N  0.58770435  0.57945318  0.50723926    -0.43610
N1676       N  0.72088346  0.63293399  0.69824055    -0.43610
C1677       C  0.64937187  0.68363595  0.14569765    -0.00020
C1678       C  0.66853815  0.71437133  0.13469294    -0.11900
C1679       C  0.66980445  0.71838975  0.08960912     0.02210
C1680       C  0.65226697  0.68975334  0.05477850    -0.00110
C1681       C  0.63196564  0.66274701  0.06507644    -0.11840
C1682       C  0.62998247  0.66015608  0.10948930     0.02100
H1683       H  0.68299239  0.73442932  0.16140400     0.15080
H1684       H  0.61776094  0.64238253  0.03809606     0.15080
C1685       C  0.60806907  0.63152295  0.11592512     0.36730
C1686       C  0.68970529  0.75077058  0.08043067     0.36640
N1687       N  0.59026183  0.60870576  0.12020847    -0.43610
N1688       N  0.70543478  0.77761913  0.07338716    -0.43610
C1689       C  0.66796557  0.45763500  0.47405082    -0.00020
C1690       C  0.68409399  0.48743509  0.50903349    -0.11900
C1691       C  0.69915873  0.46470272  0.54779864     0.02210
C1692       C  0.69854251  0.41055989  0.55121820    -0.00110
C1693       C  0.67882818  0.38209049  0.51988352    -0.11840
C1694       C  0.66367925  0.40537864  0.48068673     0.02100
H1695       H  0.68738327  0.52775008  0.50362863     0.15080
H1696       H  0.67823455  0.34040035  0.52206401     0.15080
C1697       C  0.64607113  0.37442297  0.44591874     0.36730
C1698       C  0.71963232  0.49618365  0.57663630     0.36640
N1699       N  0.63182338  0.34998945  0.41788997    -0.43610
N1700       N  0.73607427  0.52262181  0.59801914    -0.43610
C1701       C  0.73506784  0.56851860  0.24154807    -0.00020
C1702       C  0.72061011  0.55032459  0.19888698    -0.11900
C1703       C  0.73292359  0.52675843  0.16877935     0.02210
C1704       C  0.76023127  0.52106402  0.18137020    -0.00110
C1705       C  0.77493274  0.54311686  0.22265754    -0.11840
C1706       C  0.76246693  0.56698838  0.25288599     0.02100
H1707       H  0.69950671  0.55245216  0.18990770     0.15080
H1708       H  0.79587723  0.53796509  0.23285841     0.15080
C1709       C  0.77790577  0.58660805  0.29625883     0.36730
C1710       C  0.71695660  0.50569828  0.12630566     0.36640
N1711       N  0.79024994  0.60247530  0.33102067    -0.43610
N1712       N  0.70396135  0.48902763  0.09239102    -0.43610
C1713       C  0.75792132  0.76260703  0.40108781    -0.00020
C1714       C  0.76947677  0.77011140  0.44750990    -0.11900
C1715       C  0.79549465  0.78279443  0.46323707     0.02210
C1716       C  0.81031557  0.79038723  0.43168250    -0.00110
C1717       C  0.79793683  0.78969340  0.38520349    -0.11840
C1718       C  0.77181658  0.77616918  0.36949864     0.02100
H1719       H  0.75876380  0.76222018  0.47221576     0.15080
H1720       H  0.80883424  0.79823198  0.36091942     0.15080
C1721       C  0.76041411  0.77523196  0.32102665     0.36730
C1722       C  0.80628108  0.78377222  0.51195694     0.36640
N1723       N  0.75137911  0.77460255  0.28219334    -0.43610
N1724       N  0.81475308  0.78449418  0.55092657    -0.43610
C1725       C  0.52114419  0.71070108  0.45795624    -0.00020
C1726       C  0.51880230  0.70172046  0.41182696    -0.11900
C1727       C  0.54072741  0.69162925  0.39696431     0.02210
C1728       C  0.56511327  0.69021547  0.42886876    -0.00110
C1729       C  0.56742868  0.69642700  0.47527270    -0.11840
C1730       C  0.54536749  0.70681475  0.49015020     0.02100
H1731       H  0.50007930  0.70614513  0.38723373     0.15080
H1732       H  0.58639472  0.69421264  0.49948780     0.15080
C1733       C  0.54805779  0.71588511  0.53790962     0.36730
C1734       C  0.53800007  0.68522920  0.34883599     0.36640
N1735       N  0.55011339  0.72279980  0.57619946    -0.43610
N1736       N  0.53592179  0.68028937  0.31034783    -0.43610
C1737       C  0.58422536  0.38159709  0.27019730    -0.00020
C1738       C  0.57270789  0.39459302  0.30544036    -0.11900
C1739       C  0.56662719  0.44561825  0.31365490     0.02210
C1740       C  0.57199390  0.48451700  0.28627007    -0.00110
C1741       C  0.57929434  0.47028581  0.24679397    -0.11840
C1742       C  0.58698833  0.41986096  0.23998715     0.02100
H1743       H  0.56871379  0.36500509  0.32713465     0.15080
H1744       H  0.58214470  0.49974335  0.22426116     0.15080
C1745       C  0.60010497  0.40979847  0.20493283     0.36730
C1746       C  0.55594500  0.45763848  0.35139946     0.36640
N1747       N  0.61107712  0.40171714  0.17753053    -0.43610
N1748       N  0.54730604  0.46739015  0.38152820    -0.43610
C1749       C  0.66340754  0.85118374  0.31044606    -0.00020
C1750       C  0.63652227  0.85453151  0.29571758    -0.11900
C1751       C  0.62403139  0.90130038  0.29524519     0.02210
C1752       C  0.63887468  0.94729754  0.30446362    -0.00110
C1753       C  0.66628593  0.94442689  0.31707661    -0.11840
C1754       C  0.67867169  0.89617857  0.32203610     0.02100
H1755       H  0.62516034  0.81951522  0.28771896     0.15080
H1756       H  0.67785101  0.97954598  0.32474128     0.15080
C1757       C  0.70651947  0.89345393  0.34069634     0.36730
C1758       C  0.59610222  0.89929911  0.28737573     0.36640
N1759       N  0.72881861  0.89117850  0.35604761    -0.43610
N1760       N  0.57389845  0.89489072  0.28229925    -0.43610
loop_ 
_geom_bond_atom_site_label_1 
_geom_bond_atom_site_label_2 
_geom_bond_distance 
_geom_bond_site_symmetry_2 
_ccdc_geom_bond_type 
O1          Zr13   2.447       .  S
O1            C3   1.278       .  A
O2          Zr39   2.406       .  S
O2            C3   1.275       .  A
C3          C869   1.447       .  S
O4          Zr16   2.474       .  S
O4            C6   1.294       .  A
O5          Zr40   2.437       .  S
O5            C6   1.288       .  A
C6          C785   1.510       .  S
O7          Zr16   2.419       .  S
O7            C9   1.286       .  A
O8          Zr39   2.357       .  S
O8            C9   1.273       .  A
C9          C833   1.463       .  S
O10         Zr13   2.430       .  S
O10          C12   1.284       .  A
O11         Zr40   2.363       .  S
O11          C12   1.274       .  A
C12         C848   1.434       .  S
Zr13         O14   2.436       .  S
Zr13         O15   2.450       .  S
Zr13         O19   2.356       .  S
Zr13         O20   2.372       .  S
Zr13         O43   2.358       .  S
Zr13         O45   2.377       .  S
O14          H57   0.990       .  S
O15          H56   0.988       .  S
O15          H60   0.989       .  S
Zr16         O17   2.436       .  S
Zr16         O18   2.435       .  S
Zr16         O20   2.372       .  S
Zr16         O19   2.353       .  S
Zr16         O44   2.396       .  S
Zr16         O46   2.335       .  S
O17          H58   0.990       .  S
O17          H61   0.990       .  S
O18          H51   0.990       .  S
O19         Zr39   2.388       .  S
O20         Zr40   2.380       .  S
O20          H47   0.965       .  S
O21         Zr33   2.425       .  S
O21          C23   1.281       .  A
O22         Zr40   2.406       .  S
O22          C23   1.284       .  A
C23         C860   1.468       .  S
O24         Zr36   2.452       .  S
O24          C26   1.289       .  A
O25         Zr39   2.406       .  S
O25          C26   1.281       .  A
C26         C821   1.465       .  S
O27         Zr36   2.469       .  S
O27          C29   1.294       .  A
O28         Zr40   2.392       .  S
O28          C29   1.276       .  A
C29         C809   1.461       .  S
O30         Zr33   2.428       .  S
O30          C32   1.284       .  A
O31         Zr39   2.439       .  S
O31          C32   1.289       .  A
C32         C797   1.498       .  S
Zr33         O34   2.435       .  S
Zr33         O35   2.434       .  S
Zr33         O41   2.392       .  S
Zr33         O42   2.357       .  S
Zr33         O45   2.370       .  S
Zr33         O43   2.371       .  S
O34          H54   0.988       .  S
O34          H59   0.989       .  S
O35          H55   0.990       .  S
Zr36         O37   2.435       .  S
Zr36         O38   2.438       .  S
Zr36         O42   2.378       .  S
Zr36         O41   2.365       .  S
Zr36         O46   2.360       .  S
Zr36         O44   2.373       .  S
O37          H53   0.990       .  S
O38          H52   0.990       .  S
O38          H62   0.990       .  S
Zr39         O42   2.359       .  S
Zr39         O44   2.402       .  S
Zr39         O45   2.387       .  S
Zr40         O41   2.397       .  S
Zr40         O43   2.373       .  S
Zr40         O46   2.364       .  S
O41          H49   0.965       .  S
O44          H48   0.966       .  S
O45          H50   0.965       .  S
O63         Zr75   2.342       .  S
O63          C65   1.269       .  A
O64        Zr101   2.505       .  S
O64          C65   1.299       .  A
C65         C752   1.496       .  S
O66         Zr78   2.390       .  S
O66          C68   1.261       .  A
O67        Zr102   2.504       .  S
O67          C68   1.298       .  A
C68         C716   1.471       .  S
O69         Zr78   2.445       .  S
O69          C71   1.288   1_556  A
O70        Zr101   2.413       .  S
O70          C71   1.283   1_556  A
C71         C800   1.479       .  S
O72         Zr75   2.385       .  S
O72          C74   1.269       .  A
O73        Zr102   2.428       .  S
O73          C74   1.267       .  A
C74         C761   1.429       .  S
Zr75         O76   2.435       .  S
Zr75         O77   2.437       .  S
Zr75         O81   2.377       .  S
Zr75         O82   2.348       .  S
Zr75        O105   2.360       .  S
Zr75        O107   2.335       .  S
O76         H119   0.990       .  S
O77         H118   0.990       .  S
O77         H122   0.990       .  S
Zr78         O79   2.440       .  S
Zr78         O80   2.433       .  S
Zr78         O82   2.420       .  S
Zr78         O81   2.340       .  S
Zr78        O106   2.363       .  S
Zr78        O108   2.390       .  S
O79         H120   0.990       .  S
O79         H123   0.989       .  S
O80         H113   0.990   1_556  S
O81        Zr101   2.370       .  S
O82        Zr102   2.400       .  S
O82         H109   0.963       .  S
O83         Zr95   2.449       .  S
O83          C85   1.289       .  A
O84        Zr102   2.471       .  S
O84          C85   1.298       .  A
C85         C788   1.492       .  S
O86         Zr98   2.402       .  S
O86          C88   1.268       .  A
O87        Zr101   2.497       .  S
O87          C88   1.291       .  A
C88         C740   1.494       .  S
O89         Zr98   2.461       .  S
O89          C91   1.290       .  A
O90        Zr102   2.386       .  S
O90          C91   1.280       .  A
C91         C725   1.482       .  S
O92         Zr95   2.379       .  S
O92          C94   1.280       .  A
O93        Zr101   2.346       .  S
O93          C94   1.276       .  A
C94         C773   1.413       .  S
Zr95         O96   2.434       .  S
Zr95         O97   2.436       .  S
Zr95        O103   2.360       .  S
Zr95        O104   2.362       .  S
Zr95        O107   2.388       .  S
Zr95        O105   2.327       .  S
O96         H116   0.990       .  S
O96         H121   0.990       .  S
O97         H117   0.990       .  S
Zr98         O99   2.437       .  S
Zr98        O100   2.445       .  S
Zr98        O104   2.374       .  S
Zr98        O103   2.350       .  S
Zr98        O108   2.357       .  S
Zr98        O106   2.407       .  S
O99         H115   0.990       .  S
O100        H114   0.987       .  S
O100        H124   0.990       .  S
Zr101       O104   2.406       .  S
Zr101       O106   2.393       .  S
Zr101       O107   2.415       .  S
Zr102       O103   2.374       .  S
Zr102       O105   2.374       .  S
Zr102       O108   2.393       .  S
O103        H111   0.964       .  S
O106        H110   0.965       .  S
O107        H112   0.965       .  S
O125      Zr1017   2.409       .  S
O125        C127   1.265   1_655  A
O126      Zr1043   2.480       .  S
O126        C127   1.285   1_656  A
C127        C665   1.470       .  S
O128       Zr140   2.382       .  S
O128        C130   1.276       .  A
O129       Zr164   2.639       .  S
O129        C130   1.332       .  A
C130        C692   1.543       .  S
O131       Zr140   2.495   1_556  S
O131       C1013   1.296       .  A
O132      Zr1043   2.348       .  S
O132        C133   1.273       .  A
C133       O1011   1.296       .  A
C133        C749   1.466   1_655  S
O134       Zr137   2.404       .  S
O134        C136   1.278       .  A
O135       Zr164   2.487       .  S
O135        C136   1.299       .  A
C136        C656   1.495       .  S
Zr137      O1005   2.409       .  S
Zr137       O138   2.434       .  S
Zr137       O139   2.441       .  S
Zr137       O143   2.358       .  S
Zr137       O144   2.371       .  S
Zr137       O167   2.341       .  S
Zr137       O169   2.405       .  S
O138       H1061   0.990       .  S
O139        H180   0.986       .  S
O139        H184   0.987       .  S
Zr140       O141   2.437       .  S
Zr140       O142   2.435   1_554  S
Zr140       O144   2.401       .  S
Zr140       O143   2.312       .  S
Zr140       O168   2.355   1_554  S
Zr140       O170   2.393   1_554  S
O141        H182   0.989       .  S
O141        H185   0.990       .  S
O142        H175   0.990       .  S
O143       Zr163   2.366   1_554  S
O144       Zr164   2.397       .  S
O144        H171   0.964       .  S
O145       Zr157   2.365       .  S
O145        C147   1.262   1_556  A
O146       Zr164   2.628       .  S
O146        C147   1.323       .  A
C147        C701   1.535   1_565  S
O148       Zr160   2.427       .  S
O148        C150   1.287       .  A
O149       Zr163   2.418       .  S
O149        C150   1.287       .  A
C150        C641   1.487       .  S
O151       Zr160   2.528       .  S
O151        C153   1.306       .  A
O152       Zr164   2.410   1_556  S
O152        C153   1.288       .  A
C153        C737   1.505       .  S
O154       Zr157   2.511       .  S
O154        C156   1.299       .  A
O155       Zr163   2.391       .  S
O155        C156   1.278       .  A
C156        C677   1.494   1_565  S
Zr157       O158   2.437       .  S
Zr157       O159   2.434   1_566  S
Zr157       O165   2.403       .  S
Zr157       O166   2.325       .  S
Zr157       O169   2.344   1_556  S
Zr157       O167   2.426   1_556  S
O158        H178   0.990       .  S
O158        H183   0.990   1_565  S
O159        H179   0.988       .  S
Zr160       O161   2.432       .  S
Zr160       O162   2.434       .  S
Zr160       O166   2.398       .  S
Zr160       O165   2.345       .  S
Zr160       O170   2.341       .  S
Zr160       O168   2.406       .  S
O161        H177   0.990       .  S
O162        H176   0.990       .  S
O162        H186   0.990       .  S
Zr163      O1006   2.480       .  S
Zr163      O1012   2.348       .  S
Zr163       O166   2.380       .  S
Zr163       O168   2.399       .  S
Zr163       O169   2.374   1_556  S
Zr164       O165   2.429   1_554  S
Zr164       O167   2.399       .  S
Zr164       O170   2.392   1_554  S
O165        H173   0.962       .  S
O168        H172   0.966       .  S
O169        H174   0.960       .  S
H181       O1018   0.990       .  S
O187      Zr1079   2.405   1_455  S
O187        C189   1.263       .  A
O188      Zr1105   2.521   1_455  S
O188        C189   1.295       .  A
C189        C593   1.498       .  S
O190       Zr202   2.380       .  S
O190        C192   1.276       .  A
O191       Zr226   2.641       .  S
O191        C192   1.333       .  A
C192        C617   1.559       .  S
O193       Zr202   2.432       .  S
O193       C1075   1.284       .  A
O194      Zr1105   2.359       .  S
O194        C195   1.277   1_655  A
C195       O1073   1.284   1_455  A
C195        C845   1.436       .  S
O196       Zr199   2.401       .  S
O196        C198   1.282       .  A
O197       Zr226   2.446       .  S
O197        C198   1.292       .  A
C198        C644   1.486       .  S
Zr199      O1067   2.405       .  S
Zr199       O200   2.435       .  S
Zr199       O201   2.409       .  S
Zr199       O205   2.371       .  S
Zr199       O206   2.355       .  S
Zr199       O229   2.344       .  S
Zr199       O231   2.413       .  S
O200       H1123   0.990       .  S
O201        H242   0.981       .  S
O201        H246   0.989       .  S
Zr202       O203   2.436       .  S
Zr202       O204   2.434       .  S
Zr202       O206   2.371       .  S
Zr202       O205   2.334       .  S
Zr202       O230   2.350       .  S
Zr202       O232   2.371       .  S
O203        H244   0.990       .  S
O203        H247   0.990       .  S
O204        H237   0.990       .  S
O205       Zr225   2.393       .  S
O206       Zr226   2.393       .  S
O206        H233   0.965       .  S
O207       Zr219   2.359       .  S
O207        C209   1.257       .  A
O208       Zr226   2.661       .  S
O208        C209   1.329       .  A
C209        C629   1.552   1_565  S
O210       Zr222   2.403       .  S
O210        C212   1.282       .  A
O211       Zr225   2.499       .  S
O211        C212   1.303       .  A
C212        C653   1.496       .  S
O213       Zr222   2.459       .  S
O213        C215   1.294       .  A
O214       Zr226   2.331       .  S
O214        C215   1.273       .  A
C215        C836   1.459       .  S
O216       Zr219   2.423       .  S
O216        C218   1.281       .  A
O217       Zr225   2.415       .  S
O217        C218   1.285       .  A
C218        C605   1.461   1_565  S
Zr219       O220   2.443       .  S
Zr219       O221   2.439   1_565  S
Zr219       O227   2.380       .  S
Zr219       O228   2.335       .  S
Zr219       O231   2.339       .  S
Zr219       O229   2.403       .  S
O220        H240   0.990       .  S
O220        H245   0.989   1_565  S
O221        H241   0.989       .  S
Zr222       O223   2.434       .  S
Zr222       O224   2.433       .  S
Zr222       O228   2.380       .  S
Zr222       O227   2.341       .  S
Zr222       O232   2.339       .  S
Zr222       O230   2.375       .  S
O223        H239   0.990       .  S
O224        H238   0.990       .  S
O224        H248   0.990       .  S
Zr225      O1068   2.522       .  S
Zr225      O1074   2.359       .  S
Zr225       O228   2.373       .  S
Zr225       O230   2.400       .  S
Zr225       O231   2.378       .  S
Zr226       O227   2.414       .  S
Zr226       O229   2.374       .  S
Zr226       O232   2.399       .  S
O227        H235   0.963       .  S
O230        H234   0.966       .  S
O231        H236   0.960       .  S
H243       O1080   0.990       .  S
O249       Zr261   2.472       .  S
O249        C251   1.289       .  A
O250       Zr287   2.365       .  S
O250        C251   1.275       .  A
C251        C824   1.467       .  S
O252       Zr264   2.411   1_556  S
O252        C254   1.280       .  A
O253       Zr288   2.419   1_556  S
O253        C254   1.287       .  A
C254        C548   1.479       .  S
O255       Zr264   2.381       .  S
O255        C257   1.264       .  A
O256       Zr287   2.512       .  S
O256        C257   1.298       .  A
C257        C713   1.467       .  S
O258       Zr261   2.292       .  S
O258        C260   1.259       .  A
O259       Zr288   2.666       .  S
O259        C260   1.337       .  A
C260        C689   1.530       .  S
Zr261       O262   2.434       .  S
Zr261       O263   2.437       .  S
Zr261       O267   2.325       .  S
Zr261       O268   2.413       .  S
Zr261       O291   2.400       .  S
Zr261       O293   2.319       .  S
O262        H305   0.990       .  S
O263        H304   0.990       .  S
O263        H308   0.990       .  S
Zr264       O265   2.426   1_554  S
Zr264       O266   2.433   1_554  S
Zr264       O268   2.353       .  S
Zr264       O267   2.403       .  S
Zr264       O292   2.354       .  S
Zr264       O294   2.331       .  S
O265        H306   0.988       .  S
O265        H309   0.988       .  S
O266        H299   0.990       .  S
O267       Zr287   2.360       .  S
O268       Zr288   2.380       .  S
O268        H295   0.966       .  S
O269       Zr281   2.547       .  S
O269        C271   1.308       .  A
O270       Zr288   2.378       .  S
O270        C271   1.278       .  A
C271        C569   1.517       .  S
O272       Zr284   2.577       .  S
O272        C274   1.312       .  A
O273       Zr287   2.341       .  S
O273        C274   1.265       .  A
C274        C584   1.515       .  S
O275       Zr284   2.384       .  S
O275        C277   1.277       .  A
O276       Zr288   2.615       .  S
O276        C277   1.328       .  A
C277        C704   1.524       .  S
O278       Zr281   2.434       .  S
O278        C280   1.290       .  A
O279       Zr287   2.433       .  S
O279        C280   1.290       .  A
C280        C560   1.481       .  S
Zr281       O282   2.438       .  S
Zr281       O283   2.433       .  S
Zr281       O289   2.339       .  S
Zr281       O290   2.406       .  S
Zr281       O293   2.402       .  S
Zr281       O291   2.351       .  S
O282        H302   0.990       .  S
O282        H307   0.990       .  S
O283        H303   0.990       .  S
Zr284       O285   2.434       .  S
Zr284       O286   2.439       .  S
Zr284       O290   2.336       .  S
Zr284       O289   2.441       .  S
Zr284       O294   2.419       .  S
Zr284       O292   2.319       .  S
O285        H301   0.990       .  S
O286        H300   0.990       .  S
O286        H310   0.990       .  S
Zr287       O290   2.385       .  S
Zr287       O292   2.372       .  S
Zr287       O293   2.374       .  S
Zr288       O289   2.416       .  S
Zr288       O291   2.388       .  S
Zr288       O294   2.409       .  S
O289        H297   0.965       .  S
O292        H296   0.961       .  S
O293        H298   0.966       .  S
O311       Zr323   2.481       .  S
O311        C313   1.291       .  A
O312       Zr349   2.339       .  S
O312        C313   1.271       .  A
C313        C728   1.465       .  S
O314       Zr326   2.435       .  S
O314        C316   1.287       .  A
O315       Zr350   2.410       .  S
O315        C316   1.285       .  A
C316        C557   1.483       .  S
O317       Zr326   2.390       .  S
O317        C319   1.280       .  A
O318       Zr349   2.455       .  S
O318        C319   1.291       .  A
C319        C812   1.460       .  S
O320       Zr323   2.376       .  S
O320        C322   1.264       .  A
O321       Zr350   2.638       .  S
O321        C322   1.323       .  A
C322        C620   1.557       .  S
Zr323       O324   2.440       .  S
Zr323       O325   2.444       .  S
Zr323       O329   2.342       .  S
Zr323       O330   2.414       .  S
Zr323       O353   2.402       .  S
Zr323       O355   2.341       .  S
O324        H367   0.989       .  S
O325        H366   0.990       .  S
O325        H370   0.990       .  S
Zr326       O327   2.434       .  S
Zr326       O328   2.434       .  S
Zr326       O330   2.335       .  S
Zr326       O329   2.386       .  S
Zr326       O354   2.348       .  S
Zr326       O356   2.354       .  S
O327        H368   0.990       .  S
O327        H371   0.990       .  S
O328        H361   0.990       .  S
O329       Zr349   2.367       .  S
O330       Zr350   2.412       .  S
O330        H357   0.965       .  S
O331       Zr343   2.513       .  S
O331        C333   1.303       .  A
O332       Zr350   2.398       .  S
O332        C333   1.282       .  A
C333        C524   1.509       .  S
O334       Zr346   2.553       .  S
O334        C336   1.308       .  A
O335       Zr349   2.367       .  S
O335        C336   1.274       .  A
C336        C533   1.501       .  S
O337       Zr346   2.401       .  S
O337        C339   1.276       .  A
O338       Zr350   2.618       .  S
O338        C339   1.325       .  A
C339        C632   1.547       .  S
O340       Zr343   2.418       .  S
O340        C342   1.284       .  A
O341       Zr349   2.433       .  S
O341        C342   1.290       .  A
C342        C545   1.476       .  S
Zr343       O344   2.437       .  S
Zr343       O345   2.431       .  S
Zr343       O351   2.328       .  S
Zr343       O352   2.414       .  S
Zr343       O355   2.387       .  S
Zr343       O353   2.349       .  S
O344        H364   0.990       .  S
O344        H369   0.990       .  S
O345        H365   0.990       .  S
Zr346       O347   2.434       .  S
Zr346       O348   2.440       .  S
Zr346       O352   2.354       .  S
Zr346       O351   2.426       .  S
Zr346       O356   2.419       .  S
Zr346       O354   2.328       .  S
O347        H363   0.990       .  S
O348        H362   0.990       .  S
O348        H372   0.990       .  S
Zr349       O352   2.371       .  S
Zr349       O354   2.372       .  S
Zr349       O355   2.377       .  S
Zr350       O351   2.424       .  S
Zr350       O353   2.397       .  S
Zr350       O356   2.415       .  S
O351        H359   0.963       .  S
O354        H358   0.963       .  S
O355        H360   0.966       .  S
O373       Zr385   2.399       .  S
O373        C375   1.259   1_545  A
O374       Zr411   2.493   1_565  S
O374        C375   1.288       .  A
C375        C668   1.478       .  S
O376       Zr388   2.410       .  S
O376        C378   1.281       .  A
O377       Zr412   2.513       .  S
O377        C378   1.307       .  A
C378        C581   1.495       .  S
O379       Zr388   2.435       .  S
O379        C381   1.285   1_545  A
O380       Zr411   2.388       .  S
O380        C381   1.280   1_545  A
C381        C872   1.465       .  S
O382       Zr385   2.404       .  S
O382        C384   1.281       .  A
O383       Zr412   2.465       .  S
O383        C384   1.294       .  A
C384        C509   1.495       .  S
Zr385       O386   2.433       .  S
Zr385       O387   2.445       .  S
Zr385       O391   2.394       .  S
Zr385       O392   2.340       .  S
Zr385       O415   2.353       .  S
Zr385       O417   2.416       .  S
O386        H429   0.990       .  S
O387        H428   0.986       .  S
O387        H432   0.987       .  S
Zr388       O389   2.439       .  S
Zr388       O390   2.433       .  S
Zr388       O392   2.390       .  S
Zr388       O391   2.366       .  S
Zr388       O416   2.380       .  S
Zr388       O418   2.393       .  S
O389        H430   0.989       .  S
O389        H433   0.990       .  S
O390        H423   0.990       .  S
O391       Zr411   2.367       .  S
O392       Zr412   2.381       .  S
O392        H419   0.962       .  S
O393       Zr405   2.348       .  S
O393        C395   1.270       .  A
O394       Zr412   2.548       .  S
O394        C395   1.312       .  A
C395       C1452   1.490   1_455  S
O396       Zr408   2.389       .  S
O396        C398   1.275       .  A
O397       Zr411   2.473       .  S
O397        C398   1.292       .  A
C398        C497   1.476       .  S
O399       Zr408   2.419       .  S
O399        C401   1.286       .  A
O400       Zr412   2.405       .  S
O400        C401   1.286       .  A
C401        C857   1.468       .  S
O402       Zr405   2.418       .  S
O402        C404   1.276       .  A
O403       Zr411   2.428       .  S
O403        C404   1.284       .  A
C404       C1488   1.466   1_455  S
Zr405       O406   2.440       .  S
Zr405      O1287   2.440   1_455  S
Zr405       O413   2.362       .  S
Zr405       O414   2.323       .  S
Zr405       O417   2.369       .  S
Zr405       O415   2.378       .  S
O406        H426   0.989       .  S
O406       H1311   0.991   1_455  S
O407      Zr1285   2.440       .  S
O407        H427   0.990       .  S
Zr408       O409   2.434       .  S
Zr408       O410   2.435       .  S
Zr408       O414   2.356       .  S
Zr408       O413   2.359       .  S
Zr408       O418   2.342       .  S
Zr408       O416   2.383       .  S
O409        H425   0.990       .  S
O410        H424   0.990       .  S
O410        H434   0.990       .  S
Zr411       O414   2.327       .  S
Zr411       O416   2.416       .  S
Zr411       O417   2.397       .  S
Zr412       O413   2.423       .  S
Zr412       O415   2.385       .  S
Zr412       O418   2.434       .  S
O413        H421   0.964       .  S
O416        H420   0.966       .  S
O417        H422   0.966       .  S
H431       O1286   0.991       .  S
O435       Zr447   2.366       .  S
O435        C437   1.257       .  A
O436       Zr473   2.476   1_565  S
O436        C437   1.272   1_565  A
C437        C596   1.498   1_545  S
O438       Zr450   2.383       .  S
O438        C440   1.276       .  A
O439       Zr474   2.548       .  S
O439        C440   1.310       .  A
C440        C536   1.521       .  S
O441       Zr450   2.363       .  S
O441        C443   1.269       .  A
O442       Zr473   2.375       .  S
O442        C443   1.270       .  A
C443        C776   1.440   1_545  S
O444       Zr447   2.416       .  S
O444        C446   1.280       .  A
O445       Zr474   2.460       .  S
O445        C446   1.293       .  A
C446        C500   1.474       .  S
Zr447       O448   2.431       .  S
Zr447       O449   2.438       .  S
Zr447       O453   2.401       .  S
Zr447       O454   2.349       .  S
Zr447       O477   2.341       .  S
Zr447       O479   2.348       .  S
O448        H491   0.990       .  S
O449        H494   0.990       .  S
O449       H1370   0.990       .  S
Zr450       O451   2.428       .  S
Zr450       O452   2.436       .  S
Zr450       O454   2.371       .  S
Zr450       O453   2.406       .  S
Zr450       O478   2.375       .  S
Zr450       O480   2.357       .  S
O451        H492   0.990       .  S
O451        H495   0.990       .  S
O452        H485   0.990       .  S
O453       Zr473   2.437       .  S
O454       Zr474   2.390       .  S
O454        H481   0.964       .  S
O455       Zr467   2.340       .  S
O455        C457   1.250       .  A
O456       Zr474   2.544       .  S
O456        C457   1.273       .  A
C457       C1401   1.512   1_455  S
O458       Zr470   2.430       .  S
O458        C460   1.285       .  A
O459       Zr473   2.435       .  S
O459        C460   1.289       .  A
C460        C512   1.494       .  S
O461       Zr470   2.394       .  S
O461        C463   1.277       .  A
O462       Zr474   2.385       .  S
O462        C463   1.284       .  A
C463        C764   1.446       .  S
O464      Zr1347   2.470       .  S
O464        C466   1.289       .  A
O465       Zr473   2.438       .  S
O465       C1346   1.286       .  A
C466       O1345   1.286       .  A
C466        C680   1.497       .  S
Zr467      O1344   2.469   1_455  S
Zr467       O468   2.453       .  S
Zr467      O1349   2.436   1_455  S
Zr467       O475   2.395       .  S
Zr467       O476   2.362       .  S
Zr467       O479   2.321       .  S
Zr467       O477   2.434       .  S
O468        H488   0.989       .  S
O468       H1373   0.990       .  S
O469      Zr1347   2.436       .  S
O469        H489   0.990       .  S
Zr470       O471   2.435       .  S
Zr470       O472   2.444       .  S
Zr470       O476   2.397       .  S
Zr470       O475   2.388       .  S
Zr470       O480   2.395       .  S
Zr470       O478   2.357       .  S
O471        H487   0.990       .  S
O472        H486   0.990       .  S
O472        H496   0.989       .  S
Zr473       O476   2.383       .  S
Zr473       O478   2.388       .  S
Zr473       O479   2.320       .  S
Zr474       O475   2.504       .  S
Zr474       O477   2.457       .  S
Zr474       O480   2.419       .  S
O475        H483   0.969       .  S
O478        H482   0.966       .  S
O479        H484   0.967       .  S
H490       O1329   0.990       .  S
H493       O1348   0.990       .  S
C497        C498   1.403       .  A
C497        C502   1.408       .  A
C498        C499   1.399       .  A
C498        H503   1.078       .  S
C499        C500   1.403       .  A
C499        C506   1.444       .  S
C500        C501   1.409       .  A
C501        C502   1.406       .  A
C501        H504   1.085       .  S
C502        C505   1.443       .  S
C505        N507   1.157       .  T
C506       N1388   1.157       .  T
N508       C1386   1.157       .  T
C509        C510   1.412       .  A
C509        C514   1.411       .  A
C510        C511   1.394   1_554  A
C510        H515   1.084       .  S
C511        C512   1.413       .  A
C511        C518   1.446       .  S
C512        C513   1.414       .  A
C513        C514   1.407   1_556  A
C513        H516   1.084       .  S
C514        C517   1.443       .  S
C517        N519   1.157       .  T
C518        N520   1.158       .  T
C521       C1337   1.512       .  S
C521        C522   1.406       .  A
C521        C526   1.411       .  A
C522        C523   1.397       .  A
C522        H527   1.068       .  S
C523        C524   1.408       .  A
C523        C530   1.445       .  S
C524        C525   1.422       .  A
C525        C526   1.422       .  A
C525        H528   1.084       .  S
C526        C529   1.441       .  S
C529        N531   1.157       .  T
C530        N532   1.157       .  T
C533        C534   1.420       .  A
C533        C538   1.399       .  A
C534        C535   1.417       .  A
C534        H539   1.083       .  S
C535        C536   1.409       .  A
C535        C542   1.441       .  S
C536        C537   1.425       .  A
C537        C538   1.407       .  A
C537        H540   1.078       .  S
C538        C541   1.444       .  S
C541        N543   1.157       .  T
C542        N544   1.157       .  T
C545        C546   1.400       .  A
C545        C550   1.415       .  A
C546        C547   1.397       .  A
C546        H551   1.085       .  S
C547        C548   1.418       .  A
C547        C554   1.444       .  S
C548        C549   1.401       .  A
C549        C550   1.395       .  A
C549        H552   1.085       .  S
C550        C553   1.444       .  S
C553        N555   1.157       .  T
C554        N556   1.157       .  T
C557        C558   1.408       .  A
C557        C562   1.413       .  A
C558        C559   1.399       .  A
C558        H563   1.085       .  S
C559        C560   1.413       .  A
C559        C566   1.445       .  S
C560        C561   1.406       .  A
C561        C562   1.397       .  A
C561        H564   1.085       .  S
C562        C565   1.444       .  S
C565        N567   1.157       .  T
C566        N568   1.157       .  T
C569        C570   1.407       .  A
C569        C574   1.428       .  A
C570        C571   1.417       .  A
C570        H575   1.084       .  S
C571        C572   1.422       .  A
C571        C578   1.443       .  S
C572       C1275   1.489       .  S
C572        C573   1.402       .  A
C573        C574   1.410       .  A
C573        H576   1.086       .  S
C574        C577   1.446       .  S
C577        N579   1.157       .  T
C578       N1460   1.157       .  T
N580       C1458   1.157   1_455  T
C581        C582   1.388       .  A
C581        C586   1.425       .  A
C582        C583   1.400       .  A
C582        H587   1.086       .  S
C583        C584   1.441       .  A
C583        C590   1.447       .  S
C584        C585   1.402       .  A
C585        C586   1.414       .  A
C585        H588   1.084       .  S
C586        C589   1.443       .  S
C589        N591   1.157       .  T
C590        N592   1.157       .  T
C593        C594   1.397       .  A
C593        C598   1.424       .  A
C594        C595   1.398       .  A
C594       H1479   1.073   1_455  S
C595        C596   1.410       .  A
C595       C1482   1.448   1_465  S
C596        C597   1.409       .  A
C597        C598   1.423       .  A
C597        H600   1.084       .  S
C598        C601   1.441       .  S
H599       C1474   1.073       .  S
C601        N603   1.157       .  T
C602       C1475   1.448   1_545  S
C602        N604   1.157       .  T
C605        C610   1.401   1_545  A
C605       C1486   1.399       .  A
C606        C607   1.402       .  A
C606       C1485   1.399       .  A
C606        H611   1.084       .  S
C607       C1488   1.409       .  A
C607        C614   1.439       .  S
C608       C1284   1.466       .  S
C608        C609   1.399       .  A
C608       C1487   1.409       .  A
C609        C610   1.395   1_545  A
C609        H612   1.082       .  S
C610        C613   1.441       .  S
C613        N615   1.157       .  T
C614        N616   1.157       .  T
C617        C618   1.437       .  A
C617        C622   1.410       .  A
C618        C619   1.433       .  A
C618        H623   1.084       .  S
C619        C620   1.410       .  A
C619        C626   1.441       .  S
C620        C621   1.433       .  A
C621        C622   1.430       .  A
C621        H624   1.081       .  S
C622        C625   1.440       .  S
C625        N627   1.157       .  T
C626        N628   1.157       .  T
C629        C630   1.431       .  A
C629        C634   1.411       .  A
C630        C631   1.420       .  A
C630        H635   1.073       .  S
C631        C632   1.404       .  A
C631        C638   1.442       .  S
C632        C633   1.436       .  A
C633        C634   1.435       .  A
C633        H636   1.083       .  S
C634        C637   1.441   1_545  S
C637        N639   1.157       .  T
C638        N640   1.157       .  T
C641        C642   1.412       .  A
C641        C646   1.414       .  A
C642        C643   1.399       .  A
C642        H647   1.084       .  S
C643        C644   1.410       .  A
C643        C650   1.443       .  S
C644        C645   1.411       .  A
C645        C646   1.391       .  A
C645        H648   1.085       .  S
C646        C649   1.447       .  S
C649       N1531   1.158       .  T
C650        N652   1.157       .  T
N651       C1529   1.158       .  T
C653        C654   1.396       .  A
C653        C658   1.422       .  A
C654        C655   1.404       .  A
C654        H659   1.083       .  S
C655        C656   1.424       .  A
C655        C662   1.445       .  S
C656        C657   1.401       .  A
C657        C658   1.408       .  A
C657        H660   1.084       .  S
C658        C661   1.444       .  S
C661        N663   1.157       .  T
C662        N664   1.157       .  T
C665        C666   1.408       .  A
C665        C670   1.399       .  A
C666        C667   1.409       .  A
C666        H671   1.084       .  S
C667        C668   1.415       .  A
C667        C674   1.441       .  S
C668        C669   1.398       .  A
C669        C670   1.401       .  A
C669       H1552   1.070   1_565  S
C670       C1553   1.443   1_455  S
H672       C1549   1.070   1_545  S
C673       C1550   1.443       .  S
C673        N675   1.158   1_565  T
C674        N676   1.157       .  T
C677        C678   1.404       .  A
C677        C682   1.416       .  A
C678       C1559   1.410       .  A
C678       H1563   1.085       .  S
C679       C1558   1.410       .  A
C679       C1560   1.416       .  A
C679        C686   1.440   1_655  S
C680        C681   1.404       .  A
C680       C1559   1.416       .  A
C681        C682   1.412       .  A
C681        H684   1.084       .  S
C682        C685   1.442   1_545  S
H683       C1558   1.085       .  S
C685        N687   1.157       .  T
C686        N688   1.156       .  T
C689        C690   1.413       .  A
C689        C694   1.435   1_554  A
C690        C691   1.430       .  A
C690        H695   1.084       .  S
C691        C692   1.430       .  A
C691        C698   1.443       .  S
C692        C693   1.412       .  A
C693        C694   1.432   1_554  A
C693        H696   1.084   1_554  S
C694        C697   1.444       .  S
C697        N699   1.157       .  T
C698        N700   1.157       .  T
C701        C702   1.416       .  A
C701        C706   1.428       .  A
C702        C703   1.434       .  A
C702        H707   1.084       .  S
C703        C704   1.426       .  A
C703        C710   1.442       .  S
C704        C705   1.408       .  A
C705        C706   1.417       .  A
C705        H708   1.085   1_554  S
C706        C709   1.446   1_554  S
C709        N711   1.157   1_545  T
C710        N712   1.157       .  T
C713        C714   1.402   1_554  A
C713        C718   1.411   1_554  A
C714        C715   1.402       .  A
C714        H719   1.085   1_556  S
C715        C716   1.408       .  A
C715        C722   1.445       .  S
C716        C717   1.409       .  A
C717        C718   1.406       .  A
C717        H720   1.082       .  S
C718        C721   1.444   1_556  S
C721        N723   1.157       .  T
C722        N724   1.157       .  T
C725        C726   1.414       .  A
C725        C730   1.419       .  A
C726        C727   1.407       .  A
C726        H731   1.084       .  S
C727        C728   1.405       .  A
C727        C734   1.442       .  S
C728        C729   1.399       .  A
C729        C730   1.380       .  A
C729        H732   1.086       .  S
C730        C733   1.448       .  S
C733        N735   1.158       .  T
C734        N736   1.157       .  T
C737        C738   1.413       .  A
C737        C742   1.415       .  A
C738        C739   1.410       .  A
C738        H743   1.084   1_556  S
C739        C740   1.410       .  A
C739        C746   1.442   1_556  S
C740        C741   1.410       .  A
C741        C742   1.407       .  A
C741        H744   1.085       .  S
C742        C745   1.443       .  S
C745        N747   1.157       .  T
C746        N748   1.157       .  T
C749        C750   1.413       .  A
C749        C754   1.400       .  A
C750        C751   1.417       .  A
C750        H755   1.084   1_556  S
C751        C752   1.411       .  A
C751        C758   1.441   1_556  S
C752        C753   1.417       .  A
C753        C754   1.384       .  A
C753        H756   1.085       .  S
C754       C1637   1.449   1_455  S
C757       C1634   1.449       .  S
C757        N759   1.157       .  T
C758        N760   1.157       .  T
C761        C762   1.392       .  A
C761        C766   1.401       .  A
C762        C763   1.376       .  A
C762        H767   1.085       .  S
C763        C764   1.416       .  A
C763        C770   1.444       .  S
C764        C765   1.401       .  A
C765        C766   1.382       .  A
C765        H768   1.085       .  S
C766        C769   1.441       .  S
C769        N771   1.156       .  T
C770        N772   1.157       .  T
C773        C774   1.388       .  A
C773        C778   1.399       .  A
C774        C775   1.370       .  A
C774        H779   1.087       .  S
C775        C776   1.417       .  A
C775        C782   1.444       .  S
C776        C777   1.407       .  A
C777        C778   1.373       .  A
C777        H780   1.085       .  S
C778        C781   1.448       .  S
C781        N783   1.157       .  T
C782        N784   1.157       .  T
C785        C786   1.411       .  A
C785        C790   1.423       .  A
C786        C787   1.408       .  A
C786        H791   1.084       .  S
C787        C788   1.412       .  A
C787        C794   1.443       .  S
C788        C789   1.401       .  A
C789        C790   1.409       .  A
C789        H792   1.080       .  S
C790        C793   1.444       .  S
C793        N795   1.157       .  T
C794        N796   1.157       .  T
C797        C798   1.411       .  A
C797        C802   1.422       .  A
C798        C799   1.406       .  A
C798        H803   1.084       .  S
C799        C800   1.411       .  A
C799        C806   1.443       .  S
C800        C801   1.398       .  A
C801        C802   1.395       .  A
C801        H804   1.086       .  S
C802        C805   1.444       .  S
C805        N807   1.157       .  T
C806        N808   1.157       .  T
C809        C810   1.396       .  A
C809        C814   1.402       .  A
C810        C811   1.388       .  A
C810        H815   1.083       .  S
C811        C812   1.410       .  A
C811        C818   1.445       .  S
C812        C813   1.413       .  A
C813        C814   1.406       .  A
C813        H816   1.084       .  S
C814        C817   1.443       .  S
C817        N819   1.157       .  T
C818        N820   1.157       .  T
C821        C822   1.398       .  A
C821        C826   1.408       .  A
C822        C823   1.393       .  A
C822        H827   1.086       .  S
C823        C824   1.411       .  A
C823        C830   1.445       .  S
C824        C825   1.405       .  A
C825        C826   1.405       .  A
C825        H828   1.085       .  S
C826        C829   1.443       .  S
C829        N831   1.157       .  T
C830        N832   1.157       .  T
C833        C834   1.399       .  A
C833        C838   1.416       .  A
C834        C835   1.378       .  A
C834        H839   1.085       .  S
C835        C836   1.418       .  A
C835        C842   1.448       .  S
C836        C837   1.400       .  A
C837        C838   1.388       .  A
C837        H840   1.085       .  S
C838        C841   1.446       .  S
C841        N843   1.157       .  T
C842        N844   1.157       .  T
C845        C846   1.397       .  A
C845        C850   1.405       .  A
C846        C847   1.384       .  A
C846        H851   1.086       .  S
C847        C848   1.403       .  A
C847        C854   1.447       .  S
C848        C849   1.398       .  A
C849        C850   1.392       .  A
C849        H852   1.085       .  S
C850        C853   1.443       .  S
C853        N855   1.157       .  T
C854        N856   1.157       .  T
C857        C858   1.409       .  A
C857        C862   1.407       .  A
C858        C859   1.392       .  A
C858        H863   1.085       .  S
C859        C860   1.405       .  A
C859        C866   1.444       .  S
C860        C861   1.405       .  A
C861        C862   1.394       .  A
C861        H864   1.079       .  S
C862        C865   1.446       .  S
C865        N867   1.158       .  T
C866        N868   1.157       .  T
C869        C870   1.386       .  A
C869        C874   1.405       .  A
C870        C871   1.379       .  A
C870        H875   1.077       .  S
C871        C872   1.411       .  A
C871        C878   1.443       .  S
C872        C873   1.410       .  A
C873        C874   1.404       .  A
C873        H876   1.084       .  S
C874        C877   1.443       .  S
C877        N879   1.157       .  T
C878        N880   1.157       .  T
O881       Zr893   2.447       .  S
O881        C883   1.278       .  A
O882       Zr919   2.406       .  S
O882        C883   1.275       .  A
C883       C1749   1.447       .  S
O884       Zr896   2.474       .  S
O884        C886   1.294       .  A
O885       Zr920   2.437       .  S
O885        C886   1.288       .  A
C886       C1665   1.510       .  S
O887       Zr896   2.419       .  S
O887        C889   1.286       .  A
O888       Zr919   2.357       .  S
O888        C889   1.273       .  A
C889       C1713   1.463       .  S
O890       Zr893   2.430       .  S
O890        C892   1.284       .  A
O891       Zr920   2.363       .  S
O891        C892   1.274       .  A
C892       C1728   1.434       .  S
Zr893       O894   2.436       .  S
Zr893       O895   2.450       .  S
Zr893       O899   2.356       .  S
Zr893       O900   2.372       .  S
Zr893       O923   2.358       .  S
Zr893       O925   2.377       .  S
O894        H937   0.990       .  S
O895        H936   0.988       .  S
O895        H940   0.989       .  S
Zr896       O897   2.436       .  S
Zr896       O898   2.435       .  S
Zr896       O900   2.372       .  S
Zr896       O899   2.353       .  S
Zr896       O924   2.396       .  S
Zr896       O926   2.335       .  S
O897        H938   0.990       .  S
O897        H941   0.990       .  S
O898        H931   0.990       .  S
O899       Zr919   2.388       .  S
O900       Zr920   2.380       .  S
O900        H927   0.965       .  S
O901       Zr913   2.425       .  S
O901        C903   1.281       .  A
O902       Zr920   2.406       .  S
O902        C903   1.284       .  A
C903       C1740   1.468       .  S
O904       Zr916   2.452       .  S
O904        C906   1.289       .  A
O905       Zr919   2.406       .  S
O905        C906   1.281       .  A
C906       C1701   1.465       .  S
O907       Zr916   2.469       .  S
O907        C909   1.294       .  A
O908       Zr920   2.392       .  S
O908        C909   1.276       .  A
C909       C1689   1.461       .  S
O910       Zr913   2.429       .  S
O910        C912   1.284       .  A
O911       Zr919   2.439       .  S
O911        C912   1.289       .  A
C912       C1677   1.498       .  S
Zr913       O914   2.435       .  S
Zr913       O915   2.434       .  S
Zr913       O921   2.392       .  S
Zr913       O922   2.357       .  S
Zr913       O925   2.370       .  S
Zr913       O923   2.371       .  S
O914        H934   0.988       .  S
O914        H939   0.989       .  S
O915        H935   0.990       .  S
Zr916       O917   2.435       .  S
Zr916       O918   2.438       .  S
Zr916       O922   2.378       .  S
Zr916       O921   2.365       .  S
Zr916       O926   2.360       .  S
Zr916       O924   2.373       .  S
O917        H933   0.990       .  S
O918        H932   0.990       .  S
O918        H942   0.990       .  S
Zr919       O922   2.359       .  S
Zr919       O924   2.402       .  S
Zr919       O925   2.387       .  S
Zr920       O921   2.397       .  S
Zr920       O923   2.373       .  S
Zr920       O926   2.364       .  S
O921        H929   0.965       .  S
O924        H928   0.966       .  S
O925        H930   0.965       .  S
O943       Zr955   2.342       .  S
O943        C945   1.269       .  A
O944       Zr981   2.505       .  S
O944        C945   1.299       .  A
C945       C1632   1.496       .  S
O946       Zr958   2.390       .  S
O946        C948   1.261       .  A
O947       Zr982   2.504       .  S
O947        C948   1.298       .  A
C948       C1596   1.471       .  S
O949       Zr958   2.445       .  S
O949        C951   1.288   1_556  A
O950       Zr981   2.413       .  S
O950        C951   1.283   1_556  A
C951       C1680   1.479       .  S
O952       Zr955   2.385       .  S
O952        C954   1.269       .  A
O953       Zr982   2.428       .  S
O953        C954   1.267       .  A
C954       C1641   1.429       .  S
Zr955       O956   2.435       .  S
Zr955       O957   2.437       .  S
Zr955       O961   2.377       .  S
Zr955       O962   2.348       .  S
Zr955       O985   2.360       .  S
Zr955       O987   2.334       .  S
O956        H999   0.990       .  S
O957        H998   0.990       .  S
O957       H1002   0.990       .  S
Zr958       O959   2.440       .  S
Zr958       O960   2.433       .  S
Zr958       O962   2.420       .  S
Zr958       O961   2.340       .  S
Zr958       O986   2.363       .  S
Zr958       O988   2.390       .  S
O959       H1000   0.990       .  S
O959       H1003   0.989       .  S
O960        H993   0.990   1_556  S
O961       Zr981   2.370       .  S
O962       Zr982   2.400       .  S
O962        H989   0.964       .  S
O963       Zr975   2.449       .  S
O963        C965   1.289       .  A
O964       Zr982   2.471       .  S
O964        C965   1.298       .  A
C965       C1668   1.492       .  S
O966       Zr978   2.402       .  S
O966        C968   1.268       .  A
O967       Zr981   2.497       .  S
O967        C968   1.291       .  A
C968       C1620   1.494       .  S
O969       Zr978   2.461       .  S
O969        C971   1.290       .  A
O970       Zr982   2.386       .  S
O970        C971   1.280       .  A
C971       C1605   1.482       .  S
O972       Zr975   2.379       .  S
O972        C974   1.280       .  A
O973       Zr981   2.346       .  S
O973        C974   1.276       .  A
C974       C1653   1.413       .  S
Zr975       O976   2.434       .  S
Zr975       O977   2.436       .  S
Zr975       O983   2.360       .  S
Zr975       O984   2.362       .  S
Zr975       O987   2.388       .  S
Zr975       O985   2.327       .  S
O976        H996   0.990       .  S
O976       H1001   0.990       .  S
O977        H997   0.990       .  S
Zr978       O979   2.437       .  S
Zr978       O980   2.445       .  S
Zr978       O984   2.374       .  S
Zr978       O983   2.350       .  S
Zr978       O988   2.357       .  S
Zr978       O986   2.407       .  S
O979        H995   0.990       .  S
O980        H994   0.987       .  S
O980       H1004   0.990       .  S
Zr981       O984   2.406       .  S
Zr981       O986   2.393       .  S
Zr981       O987   2.415       .  S
Zr982       O983   2.374       .  S
Zr982       O985   2.374       .  S
Zr982       O988   2.393       .  S
O983        H991   0.964       .  S
O986        H990   0.965       .  S
O987        H992   0.965       .  S
O1005      C1007   1.265       .  A
O1006      C1007   1.285   1_556  A
C1007      C1545   1.470       .  S
O1008     Zr1020   2.382       .  S
O1008      C1010   1.277       .  A
O1009     Zr1044   2.639       .  S
O1009      C1010   1.332       .  A
C1010      C1572   1.543       .  S
O1011     Zr1020   2.495   1_556  S
O1012      C1013   1.273       .  A
C1013      C1629   1.466       .  S
O1014     Zr1017   2.404       .  S
O1014      C1016   1.278       .  A
O1015     Zr1044   2.487       .  S
O1015      C1016   1.299       .  A
C1016      C1536   1.495       .  S
Zr1017     O1018   2.434       .  S
Zr1017     O1019   2.441       .  S
Zr1017     O1023   2.358       .  S
Zr1017     O1024   2.371       .  S
Zr1017     O1047   2.341       .  S
Zr1017     O1049   2.405       .  S
O1019      H1060   0.986       .  S
O1019      H1064   0.987       .  S
Zr1020     O1021   2.437       .  S
Zr1020     O1022   2.435   1_554  S
Zr1020     O1024   2.400       .  S
Zr1020     O1023   2.312       .  S
Zr1020     O1048   2.355   1_554  S
Zr1020     O1050   2.393   1_554  S
O1021      H1062   0.989       .  S
O1021      H1065   0.990       .  S
O1022      H1055   0.990       .  S
O1023     Zr1043   2.366   1_554  S
O1024     Zr1044   2.397       .  S
O1024      H1051   0.964       .  S
O1025     Zr1037   2.366       .  S
O1025      C1027   1.262   1_556  A
O1026     Zr1044   2.628       .  S
O1026      C1027   1.323       .  A
C1027      C1581   1.535   1_565  S
O1028     Zr1040   2.428       .  S
O1028      C1030   1.287       .  A
O1029     Zr1043   2.418       .  S
O1029      C1030   1.287       .  A
C1030      C1521   1.487       .  S
O1031     Zr1040   2.528       .  S
O1031      C1033   1.306       .  A
O1032     Zr1044   2.410   1_556  S
O1032      C1033   1.288       .  A
C1033      C1617   1.505       .  S
O1034     Zr1037   2.515       .  S
O1034      C1036   1.300       .  A
O1035     Zr1043   2.391       .  S
O1035      C1036   1.277       .  A
C1036      C1557   1.496   1_565  S
Zr1037     O1038   2.436       .  S
Zr1037     O1039   2.434   1_566  S
Zr1037     O1045   2.403       .  S
Zr1037     O1046   2.325       .  S
Zr1037     O1049   2.344   1_556  S
Zr1037     O1047   2.427   1_556  S
O1038      H1058   0.990       .  S
O1038      H1063   0.990   1_565  S
O1039      H1059   0.988       .  S
Zr1040     O1041   2.432       .  S
Zr1040     O1042   2.434       .  S
Zr1040     O1046   2.398       .  S
Zr1040     O1045   2.345       .  S
Zr1040     O1050   2.341       .  S
Zr1040     O1048   2.406       .  S
O1041      H1057   0.990       .  S
O1042      H1056   0.990       .  S
O1042      H1066   0.990       .  S
Zr1043     O1046   2.380       .  S
Zr1043     O1048   2.399       .  S
Zr1043     O1049   2.374   1_556  S
Zr1044     O1045   2.429   1_554  S
Zr1044     O1047   2.399       .  S
Zr1044     O1050   2.392   1_554  S
O1045      H1053   0.962       .  S
O1048      H1052   0.966       .  S
O1049      H1054   0.960       .  S
O1067      C1069   1.263       .  A
O1068      C1069   1.296       .  A
C1069      C1473   1.498       .  S
O1070     Zr1082   2.380       .  S
O1070      C1072   1.276       .  A
O1071     Zr1106   2.641       .  S
O1071      C1072   1.333       .  A
C1072      C1497   1.559       .  S
O1073     Zr1082   2.432       .  S
O1074      C1075   1.277       .  A
C1075      C1725   1.436       .  S
O1076     Zr1079   2.401       .  S
O1076      C1078   1.282       .  A
O1077     Zr1106   2.446       .  S
O1077      C1078   1.292       .  A
C1078      C1524   1.486       .  S
Zr1079     O1080   2.435       .  S
Zr1079     O1081   2.409       .  S
Zr1079     O1085   2.371       .  S
Zr1079     O1086   2.354       .  S
Zr1079     O1109   2.344       .  S
Zr1079     O1111   2.413       .  S
O1081      H1122   0.981       .  S
O1081      H1126   0.989       .  S
Zr1082     O1083   2.436       .  S
Zr1082     O1084   2.434       .  S
Zr1082     O1086   2.371       .  S
Zr1082     O1085   2.334       .  S
Zr1082     O1110   2.350       .  S
Zr1082     O1112   2.371       .  S
O1083      H1124   0.990       .  S
O1083      H1127   0.990       .  S
O1084      H1117   0.990       .  S
O1085     Zr1105   2.393       .  S
O1086     Zr1106   2.393       .  S
O1086      H1113   0.965       .  S
O1087     Zr1099   2.359       .  S
O1087      C1089   1.257       .  A
O1088     Zr1106   2.661       .  S
O1088      C1089   1.329       .  A
C1089      C1509   1.552   1_565  S
O1090     Zr1102   2.403       .  S
O1090      C1092   1.282       .  A
O1091     Zr1105   2.499       .  S
O1091      C1092   1.303       .  A
C1092      C1533   1.496       .  S
O1093     Zr1102   2.458       .  S
O1093      C1095   1.294       .  A
O1094     Zr1106   2.331       .  S
O1094      C1095   1.273       .  A
C1095      C1716   1.459       .  S
O1096     Zr1099   2.423       .  S
O1096      C1098   1.280       .  A
O1097     Zr1105   2.415       .  S
O1097      C1098   1.286       .  A
C1098      C1485   1.461   1_565  S
Zr1099     O1100   2.443       .  S
Zr1099     O1101   2.439   1_565  S
Zr1099     O1107   2.380       .  S
Zr1099     O1108   2.335       .  S
Zr1099     O1111   2.339       .  S
Zr1099     O1109   2.403       .  S
O1100      H1120   0.990       .  S
O1100      H1125   0.989   1_565  S
O1101      H1121   0.989       .  S
Zr1102     O1103   2.434       .  S
Zr1102     O1104   2.433       .  S
Zr1102     O1108   2.379       .  S
Zr1102     O1107   2.341       .  S
Zr1102     O1112   2.339       .  S
Zr1102     O1110   2.375       .  S
O1103      H1119   0.990       .  S
O1104      H1118   0.990       .  S
O1104      H1128   0.990       .  S
Zr1105     O1108   2.373       .  S
Zr1105     O1110   2.400       .  S
Zr1105     O1111   2.378       .  S
Zr1106     O1107   2.414       .  S
Zr1106     O1109   2.374       .  S
Zr1106     O1112   2.399       .  S
O1107      H1115   0.963       .  S
O1110      H1114   0.966       .  S
O1111      H1116   0.960       .  S
O1129     Zr1141   2.472       .  S
O1129      C1131   1.289       .  A
O1130     Zr1167   2.365       .  S
O1130      C1131   1.275       .  A
C1131      C1704   1.467       .  S
O1132     Zr1144   2.411   1_556  S
O1132      C1134   1.280       .  A
O1133     Zr1168   2.419   1_556  S
O1133      C1134   1.287       .  A
C1134      C1428   1.479       .  S
O1135     Zr1144   2.381       .  S
O1135      C1137   1.264       .  A
O1136     Zr1167   2.512       .  S
O1136      C1137   1.298       .  A
C1137      C1593   1.467       .  S
O1138     Zr1141   2.292       .  S
O1138      C1140   1.259       .  A
O1139     Zr1168   2.666       .  S
O1139      C1140   1.337       .  A
C1140      C1569   1.530       .  S
Zr1141     O1142   2.434       .  S
Zr1141     O1143   2.437       .  S
Zr1141     O1147   2.325       .  S
Zr1141     O1148   2.413       .  S
Zr1141     O1171   2.400       .  S
Zr1141     O1173   2.319       .  S
O1142      H1185   0.990       .  S
O1143      H1184   0.990       .  S
O1143      H1188   0.990       .  S
Zr1144     O1145   2.426   1_554  S
Zr1144     O1146   2.433   1_554  S
Zr1144     O1148   2.353       .  S
Zr1144     O1147   2.403       .  S
Zr1144     O1172   2.354       .  S
Zr1144     O1174   2.331       .  S
O1145      H1186   0.988       .  S
O1145      H1189   0.988       .  S
O1146      H1179   0.990       .  S
O1147     Zr1167   2.360       .  S
O1148     Zr1168   2.381       .  S
O1148      H1175   0.966       .  S
O1149     Zr1161   2.547       .  S
O1149      C1151   1.308       .  A
O1150     Zr1168   2.378       .  S
O1150      C1151   1.278       .  A
C1151      C1449   1.517       .  S
O1152     Zr1164   2.577       .  S
O1152      C1154   1.312       .  A
O1153     Zr1167   2.340       .  S
O1153      C1154   1.265       .  A
C1154      C1464   1.515       .  S
O1155     Zr1164   2.384       .  S
O1155      C1157   1.277       .  A
O1156     Zr1168   2.615       .  S
O1156      C1157   1.328       .  A
C1157      C1584   1.524       .  S
O1158     Zr1161   2.434       .  S
O1158      C1160   1.290       .  A
O1159     Zr1167   2.433       .  S
O1159      C1160   1.290       .  A
C1160      C1440   1.481       .  S
Zr1161     O1162   2.438       .  S
Zr1161     O1163   2.433       .  S
Zr1161     O1169   2.339       .  S
Zr1161     O1170   2.406       .  S
Zr1161     O1173   2.402       .  S
Zr1161     O1171   2.351       .  S
O1162      H1182   0.990       .  S
O1162      H1187   0.990       .  S
O1163      H1183   0.990       .  S
Zr1164     O1165   2.434       .  S
Zr1164     O1166   2.439       .  S
Zr1164     O1170   2.336       .  S
Zr1164     O1169   2.441       .  S
Zr1164     O1174   2.419       .  S
Zr1164     O1172   2.319       .  S
O1165      H1181   0.990       .  S
O1166      H1180   0.990       .  S
O1166      H1190   0.990       .  S
Zr1167     O1170   2.385       .  S
Zr1167     O1172   2.372       .  S
Zr1167     O1173   2.374       .  S
Zr1168     O1169   2.416       .  S
Zr1168     O1171   2.388       .  S
Zr1168     O1174   2.409       .  S
O1169      H1177   0.965       .  S
O1172      H1176   0.961       .  S
O1173      H1178   0.966       .  S
O1191     Zr1203   2.481       .  S
O1191      C1193   1.291       .  A
O1192     Zr1229   2.339       .  S
O1192      C1193   1.271       .  A
C1193      C1608   1.465       .  S
O1194     Zr1206   2.435       .  S
O1194      C1196   1.287       .  A
O1195     Zr1230   2.410       .  S
O1195      C1196   1.285       .  A
C1196      C1437   1.483       .  S
O1197     Zr1206   2.390       .  S
O1197      C1199   1.280       .  A
O1198     Zr1229   2.455       .  S
O1198      C1199   1.291       .  A
C1199      C1692   1.460       .  S
O1200     Zr1203   2.376       .  S
O1200      C1202   1.264       .  A
O1201     Zr1230   2.638       .  S
O1201      C1202   1.323       .  A
C1202      C1500   1.557       .  S
Zr1203     O1204   2.440       .  S
Zr1203     O1205   2.444       .  S
Zr1203     O1209   2.342       .  S
Zr1203     O1210   2.414       .  S
Zr1203     O1233   2.402       .  S
Zr1203     O1235   2.341       .  S
O1204      H1247   0.989       .  S
O1205      H1246   0.990       .  S
O1205      H1250   0.990       .  S
Zr1206     O1207   2.434       .  S
Zr1206     O1208   2.434       .  S
Zr1206     O1210   2.335       .  S
Zr1206     O1209   2.386       .  S
Zr1206     O1234   2.348       .  S
Zr1206     O1236   2.354       .  S
O1207      H1248   0.990       .  S
O1207      H1251   0.990       .  S
O1208      H1241   0.990       .  S
O1209     Zr1229   2.367       .  S
O1210     Zr1230   2.412       .  S
O1210      H1237   0.965       .  S
O1211     Zr1223   2.513       .  S
O1211      C1213   1.303       .  A
O1212     Zr1230   2.398       .  S
O1212      C1213   1.282       .  A
C1213      C1404   1.509       .  S
O1214     Zr1226   2.553       .  S
O1214      C1216   1.308       .  A
O1215     Zr1229   2.367       .  S
O1215      C1216   1.274       .  A
C1216      C1413   1.501       .  S
O1217     Zr1226   2.401       .  S
O1217      C1219   1.276       .  A
O1218     Zr1230   2.618       .  S
O1218      C1219   1.325       .  A
C1219      C1512   1.547       .  S
O1220     Zr1223   2.418       .  S
O1220      C1222   1.284       .  A
O1221     Zr1229   2.433       .  S
O1221      C1222   1.290       .  A
C1222      C1425   1.476       .  S
Zr1223     O1224   2.437       .  S
Zr1223     O1225   2.431       .  S
Zr1223     O1231   2.328       .  S
Zr1223     O1232   2.414       .  S
Zr1223     O1235   2.387       .  S
Zr1223     O1233   2.349       .  S
O1224      H1244   0.990       .  S
O1224      H1249   0.990       .  S
O1225      H1245   0.990       .  S
Zr1226     O1227   2.434       .  S
Zr1226     O1228   2.440       .  S
Zr1226     O1232   2.354       .  S
Zr1226     O1231   2.426       .  S
Zr1226     O1236   2.419       .  S
Zr1226     O1234   2.328       .  S
O1227      H1243   0.990       .  S
O1228      H1242   0.990       .  S
O1228      H1252   0.990       .  S
Zr1229     O1232   2.371       .  S
Zr1229     O1234   2.372       .  S
Zr1229     O1235   2.377       .  S
Zr1230     O1231   2.424       .  S
Zr1230     O1233   2.397       .  S
Zr1230     O1236   2.414       .  S
O1231      H1239   0.963       .  S
O1234      H1238   0.963       .  S
O1235      H1240   0.966       .  S
O1253     Zr1265   2.399       .  S
O1253      C1255   1.259   1_545  A
O1254     Zr1291   2.493   1_565  S
O1254      C1255   1.288       .  A
C1255      C1548   1.478       .  S
O1256     Zr1268   2.410       .  S
O1256      C1258   1.281       .  A
O1257     Zr1292   2.512       .  S
O1257      C1258   1.307       .  A
C1258      C1461   1.495       .  S
O1259     Zr1268   2.435       .  S
O1259      C1261   1.285   1_545  A
O1260     Zr1291   2.388       .  S
O1260      C1261   1.280   1_545  A
C1261      C1752   1.465       .  S
O1262     Zr1265   2.404       .  S
O1262      C1264   1.281       .  A
O1263     Zr1292   2.464       .  S
O1263      C1264   1.294       .  A
C1264      C1389   1.495       .  S
Zr1265     O1266   2.433       .  S
Zr1265     O1267   2.445       .  S
Zr1265     O1271   2.394       .  S
Zr1265     O1272   2.340       .  S
Zr1265     O1295   2.353       .  S
Zr1265     O1297   2.416       .  S
O1266      H1309   0.990       .  S
O1267      H1308   0.986       .  S
O1267      H1312   0.987       .  S
Zr1268     O1269   2.439       .  S
Zr1268     O1270   2.433       .  S
Zr1268     O1272   2.390       .  S
Zr1268     O1271   2.366       .  S
Zr1268     O1296   2.380       .  S
Zr1268     O1298   2.393       .  S
O1269      H1310   0.989       .  S
O1269      H1313   0.990       .  S
O1270      H1303   0.990       .  S
O1271     Zr1291   2.367       .  S
O1272     Zr1292   2.381       .  S
O1272      H1299   0.962       .  S
O1273     Zr1285   2.348       .  S
O1273      C1275   1.270       .  A
O1274     Zr1292   2.548       .  S
O1274      C1275   1.312       .  A
O1276     Zr1288   2.389       .  S
O1276      C1278   1.275       .  A
O1277     Zr1291   2.472       .  S
O1277      C1278   1.292       .  A
C1278      C1377   1.476       .  S
O1279     Zr1288   2.419       .  S
O1279      C1281   1.286       .  A
O1280     Zr1292   2.405       .  S
O1280      C1281   1.286       .  A
C1281      C1737   1.468       .  S
O1282     Zr1285   2.418       .  S
O1282      C1284   1.276       .  A
O1283     Zr1291   2.428       .  S
O1283      C1284   1.284       .  A
Zr1285     O1286   2.440       .  S
Zr1285     O1293   2.362       .  S
Zr1285     O1294   2.323       .  S
Zr1285     O1297   2.369       .  S
Zr1285     O1295   2.378       .  S
O1286      H1306   0.989       .  S
O1287      H1307   0.990       .  S
Zr1288     O1289   2.434       .  S
Zr1288     O1290   2.435       .  S
Zr1288     O1294   2.356       .  S
Zr1288     O1293   2.359       .  S
Zr1288     O1298   2.341       .  S
Zr1288     O1296   2.383       .  S
O1289      H1305   0.990       .  S
O1290      H1304   0.990       .  S
O1290      H1314   0.990       .  S
Zr1291     O1294   2.328       .  S
Zr1291     O1296   2.416       .  S
Zr1291     O1297   2.397       .  S
Zr1292     O1293   2.423       .  S
Zr1292     O1295   2.385       .  S
Zr1292     O1298   2.434       .  S
O1293      H1301   0.964       .  S
O1296      H1300   0.966       .  S
O1297      H1302   0.966       .  S
O1315     Zr1327   2.365       .  S
O1315      C1317   1.257       .  A
O1316     Zr1353   2.476   1_565  S
O1316      C1317   1.272   1_565  A
C1317      C1476   1.498   1_545  S
O1318     Zr1330   2.383       .  S
O1318      C1320   1.276       .  A
O1319     Zr1354   2.548       .  S
O1319      C1320   1.310       .  A
C1320      C1416   1.521       .  S
O1321     Zr1330   2.363       .  S
O1321      C1323   1.269       .  A
O1322     Zr1353   2.375       .  S
O1322      C1323   1.270       .  A
C1323      C1656   1.440   1_545  S
O1324     Zr1327   2.416       .  S
O1324      C1326   1.280       .  A
O1325     Zr1354   2.459       .  S
O1325      C1326   1.293       .  A
C1326      C1380   1.474       .  S
Zr1327     O1328   2.431       .  S
Zr1327     O1329   2.438       .  S
Zr1327     O1333   2.401       .  S
Zr1327     O1334   2.348       .  S
Zr1327     O1357   2.341       .  S
Zr1327     O1359   2.349       .  S
O1328      H1371   0.990       .  S
O1329      H1374   0.990       .  S
Zr1330     O1331   2.428       .  S
Zr1330     O1332   2.436       .  S
Zr1330     O1334   2.371       .  S
Zr1330     O1333   2.407       .  S
Zr1330     O1358   2.375       .  S
Zr1330     O1360   2.357       .  S
O1331      H1372   0.990       .  S
O1331      H1375   0.990       .  S
O1332      H1365   0.990       .  S
O1333     Zr1353   2.436       .  S
O1334     Zr1354   2.390       .  S
O1334      H1361   0.964       .  S
O1335     Zr1347   2.340       .  S
O1335      C1337   1.250       .  A
O1336     Zr1354   2.544       .  S
O1336      C1337   1.273       .  A
O1338     Zr1350   2.430       .  S
O1338      C1340   1.285       .  A
O1339     Zr1353   2.435       .  S
O1339      C1340   1.289       .  A
C1340      C1392   1.494       .  S
O1341     Zr1350   2.394       .  S
O1341      C1343   1.277       .  A
O1342     Zr1354   2.385       .  S
O1342      C1343   1.284       .  A
C1343      C1644   1.446       .  S
O1344      C1346   1.289   1_655  A
O1345     Zr1353   2.439       .  S
C1346      C1560   1.492   1_455  S
Zr1347     O1348   2.453       .  S
Zr1347     O1355   2.395       .  S
Zr1347     O1356   2.362       .  S
Zr1347     O1359   2.321       .  S
Zr1347     O1357   2.434       .  S
O1348      H1368   0.989       .  S
O1349      H1369   0.990       .  S
Zr1350     O1351   2.435       .  S
Zr1350     O1352   2.444       .  S
Zr1350     O1356   2.397       .  S
Zr1350     O1355   2.388       .  S
Zr1350     O1360   2.395       .  S
Zr1350     O1358   2.357       .  S
O1351      H1367   0.990       .  S
O1352      H1366   0.990       .  S
O1352      H1376   0.989       .  S
Zr1353     O1356   2.383       .  S
Zr1353     O1358   2.388       .  S
Zr1353     O1359   2.321       .  S
Zr1354     O1355   2.504       .  S
Zr1354     O1357   2.456       .  S
Zr1354     O1360   2.419       .  S
O1355      H1363   0.969       .  S
O1358      H1362   0.966       .  S
O1359      H1364   0.957       .  S
C1377      C1378   1.403       .  A
C1377      C1382   1.408       .  A
C1378      C1379   1.399       .  A
C1378      H1383   1.078       .  S
C1379      C1380   1.403       .  A
C1379      C1386   1.444       .  S
C1380      C1381   1.409       .  A
C1381      C1382   1.406       .  A
C1381      H1384   1.085       .  S
C1382      C1385   1.443       .  S
C1385      N1387   1.157       .  T
C1389      C1390   1.412       .  A
C1389      C1394   1.411       .  A
C1390      C1391   1.394   1_554  A
C1390      H1395   1.084       .  S
C1391      C1392   1.413       .  A
C1391      C1398   1.446       .  S
C1392      C1393   1.414       .  A
C1393      C1394   1.407   1_556  A
C1393      H1396   1.084       .  S
C1394      C1397   1.443       .  S
C1397      N1399   1.157       .  T
C1398      N1400   1.158       .  T
C1401      C1402   1.406       .  A
C1401      C1406   1.411       .  A
C1402      C1403   1.397       .  A
C1402      H1407   1.068       .  S
C1403      C1404   1.408       .  A
C1403      C1410   1.445       .  S
C1404      C1405   1.422       .  A
C1405      C1406   1.422       .  A
C1405      H1408   1.084       .  S
C1406      C1409   1.441       .  S
C1409      N1411   1.157       .  T
C1410      N1412   1.157       .  T
C1413      C1414   1.420       .  A
C1413      C1418   1.399       .  A
C1414      C1415   1.417       .  A
C1414      H1419   1.083       .  S
C1415      C1416   1.409       .  A
C1415      C1422   1.441       .  S
C1416      C1417   1.425       .  A
C1417      C1418   1.407       .  A
C1417      H1420   1.078       .  S
C1418      C1421   1.444       .  S
C1421      N1423   1.157       .  T
C1422      N1424   1.157       .  T
C1425      C1426   1.400       .  A
C1425      C1430   1.415       .  A
C1426      C1427   1.397       .  A
C1426      H1431   1.085       .  S
C1427      C1428   1.418       .  A
C1427      C1434   1.444       .  S
C1428      C1429   1.401       .  A
C1429      C1430   1.395       .  A
C1429      H1432   1.085       .  S
C1430      C1433   1.444       .  S
C1433      N1435   1.157       .  T
C1434      N1436   1.157       .  T
C1437      C1438   1.408       .  A
C1437      C1442   1.413       .  A
C1438      C1439   1.399       .  A
C1438      H1443   1.085       .  S
C1439      C1440   1.413       .  A
C1439      C1446   1.445       .  S
C1440      C1441   1.406       .  A
C1441      C1442   1.397       .  A
C1441      H1444   1.085       .  S
C1442      C1445   1.444       .  S
C1445      N1447   1.157       .  T
C1446      N1448   1.157       .  T
C1449      C1450   1.407       .  A
C1449      C1454   1.428       .  A
C1450      C1451   1.417       .  A
C1450      H1455   1.084       .  S
C1451      C1452   1.422       .  A
C1451      C1458   1.443       .  S
C1452      C1453   1.402       .  A
C1453      C1454   1.410       .  A
C1453      H1456   1.086       .  S
C1454      C1457   1.446       .  S
C1457      N1459   1.157       .  T
C1461      C1462   1.388       .  A
C1461      C1466   1.425       .  A
C1462      C1463   1.400       .  A
C1462      H1467   1.086       .  S
C1463      C1464   1.441       .  A
C1463      C1470   1.447       .  S
C1464      C1465   1.402       .  A
C1465      C1466   1.414       .  A
C1465      H1468   1.084       .  S
C1466      C1469   1.443       .  S
C1469      N1471   1.157       .  T
C1470      N1472   1.157       .  T
C1473      C1474   1.397       .  A
C1473      C1478   1.424       .  A
C1474      C1475   1.398       .  A
C1475      C1476   1.410       .  A
C1476      C1477   1.409       .  A
C1477      C1478   1.423       .  A
C1477      H1480   1.084       .  S
C1478      C1481   1.441       .  S
C1481      N1483   1.157       .  T
C1482      N1484   1.157       .  T
C1485      C1490   1.401   1_545  A
C1486      C1487   1.402       .  A
C1486      H1491   1.084       .  S
C1487      C1494   1.439       .  S
C1488      C1489   1.399       .  A
C1489      C1490   1.395   1_545  A
C1489      H1492   1.082       .  S
C1490      C1493   1.441       .  S
C1493      N1495   1.157       .  T
C1494      N1496   1.157       .  T
C1497      C1498   1.437       .  A
C1497      C1502   1.410       .  A
C1498      C1499   1.433       .  A
C1498      H1503   1.084       .  S
C1499      C1500   1.410       .  A
C1499      C1506   1.441       .  S
C1500      C1501   1.433       .  A
C1501      C1502   1.430       .  A
C1501      H1504   1.081       .  S
C1502      C1505   1.440       .  S
C1505      N1507   1.157       .  T
C1506      N1508   1.157       .  T
C1509      C1510   1.431       .  A
C1509      C1514   1.411       .  A
C1510      C1511   1.420       .  A
C1510      H1515   1.073       .  S
C1511      C1512   1.404       .  A
C1511      C1518   1.442       .  S
C1512      C1513   1.436       .  A
C1513      C1514   1.435       .  A
C1513      H1516   1.083       .  S
C1514      C1517   1.441   1_545  S
C1517      N1519   1.157       .  T
C1518      N1520   1.157       .  T
C1521      C1522   1.412       .  A
C1521      C1526   1.414       .  A
C1522      C1523   1.399       .  A
C1522      H1527   1.084       .  S
C1523      C1524   1.410       .  A
C1523      C1530   1.443       .  S
C1524      C1525   1.411       .  A
C1525      C1526   1.391       .  A
C1525      H1528   1.085       .  S
C1526      C1529   1.447       .  S
C1530      N1532   1.157       .  T
C1533      C1534   1.396       .  A
C1533      C1538   1.422       .  A
C1534      C1535   1.404       .  A
C1534      H1539   1.083       .  S
C1535      C1536   1.424       .  A
C1535      C1542   1.445       .  S
C1536      C1537   1.401       .  A
C1537      C1538   1.408       .  A
C1537      H1540   1.084       .  S
C1538      C1541   1.444       .  S
C1541      N1543   1.157       .  T
C1542      N1544   1.157       .  T
C1545      C1546   1.408       .  A
C1545      C1550   1.399       .  A
C1546      C1547   1.409       .  A
C1546      H1551   1.084       .  S
C1547      C1548   1.415       .  A
C1547      C1554   1.441       .  S
C1548      C1549   1.398       .  A
C1549      C1550   1.401       .  A
C1553      N1555   1.158   1_565  T
C1554      N1556   1.157       .  T
C1557      C1558   1.403       .  A
C1557      C1562   1.418   1_545  A
C1559      C1566   1.442       .  S
C1560      C1561   1.400       .  A
C1561      C1562   1.411   1_545  A
C1561      H1564   1.085       .  S
C1562      C1565   1.441       .  S
C1565      N1567   1.157       .  T
C1566      N1568   1.157       .  T
C1569      C1570   1.413       .  A
C1569      C1574   1.435   1_554  A
C1570      C1571   1.430       .  A
C1570      H1575   1.084       .  S
C1571      C1572   1.430       .  A
C1571      C1578   1.443       .  S
C1572      C1573   1.412       .  A
C1573      C1574   1.432   1_554  A
C1573      H1576   1.084   1_554  S
C1574      C1577   1.444       .  S
C1577      N1579   1.157       .  T
C1578      N1580   1.157       .  T
C1581      C1582   1.416       .  A
C1581      C1586   1.428       .  A
C1582      C1583   1.434       .  A
C1582      H1587   1.084       .  S
C1583      C1584   1.426       .  A
C1583      C1590   1.442       .  S
C1584      C1585   1.408       .  A
C1585      C1586   1.417       .  A
C1585      H1588   1.085   1_554  S
C1586      C1589   1.446   1_554  S
C1589      N1591   1.157   1_545  T
C1590      N1592   1.157       .  T
C1593      C1594   1.402   1_554  A
C1593      C1598   1.411   1_554  A
C1594      C1595   1.402       .  A
C1594      H1599   1.085   1_556  S
C1595      C1596   1.408       .  A
C1595      C1602   1.445       .  S
C1596      C1597   1.409       .  A
C1597      C1598   1.406       .  A
C1597      H1600   1.082       .  S
C1598      C1601   1.444   1_556  S
C1601      N1603   1.157       .  T
C1602      N1604   1.157       .  T
C1605      C1606   1.414       .  A
C1605      C1610   1.419       .  A
C1606      C1607   1.407       .  A
C1606      H1611   1.084       .  S
C1607      C1608   1.405       .  A
C1607      C1614   1.442       .  S
C1608      C1609   1.399       .  A
C1609      C1610   1.380       .  A
C1609      H1612   1.086       .  S
C1610      C1613   1.448       .  S
C1613      N1615   1.158       .  T
C1614      N1616   1.157       .  T
C1617      C1618   1.413       .  A
C1617      C1622   1.415       .  A
C1618      C1619   1.410       .  A
C1618      H1623   1.084   1_556  S
C1619      C1620   1.410       .  A
C1619      C1626   1.442   1_556  S
C1620      C1621   1.410       .  A
C1621      C1622   1.407       .  A
C1621      H1624   1.085       .  S
C1622      C1625   1.443       .  S
C1625      N1627   1.157       .  T
C1626      N1628   1.157       .  T
C1629      C1630   1.413       .  A
C1629      C1634   1.400       .  A
C1630      C1631   1.417       .  A
C1630      H1635   1.084   1_556  S
C1631      C1632   1.411       .  A
C1631      C1638   1.441   1_556  S
C1632      C1633   1.417       .  A
C1633      C1634   1.384       .  A
C1633      H1636   1.085       .  S
C1637      N1639   1.157       .  T
C1638      N1640   1.157       .  T
C1641      C1642   1.392       .  A
C1641      C1646   1.401       .  A
C1642      C1643   1.376       .  A
C1642      H1647   1.085       .  S
C1643      C1644   1.416       .  A
C1643      C1650   1.444       .  S
C1644      C1645   1.402       .  A
C1645      C1646   1.382       .  A
C1645      H1648   1.085       .  S
C1646      C1649   1.441       .  S
C1649      N1651   1.156       .  T
C1650      N1652   1.157       .  T
C1653      C1654   1.388       .  A
C1653      C1658   1.399       .  A
C1654      C1655   1.370       .  A
C1654      H1659   1.087       .  S
C1655      C1656   1.417       .  A
C1655      C1662   1.444       .  S
C1656      C1657   1.407       .  A
C1657      C1658   1.373       .  A
C1657      H1660   1.085       .  S
C1658      C1661   1.448       .  S
C1661      N1663   1.157       .  T
C1662      N1664   1.157       .  T
C1665      C1666   1.411       .  A
C1665      C1670   1.423       .  A
C1666      C1667   1.408       .  A
C1666      H1671   1.084       .  S
C1667      C1668   1.412       .  A
C1667      C1674   1.443       .  S
C1668      C1669   1.401       .  A
C1669      C1670   1.409       .  A
C1669      H1672   1.080       .  S
C1670      C1673   1.444       .  S
C1673      N1675   1.157       .  T
C1674      N1676   1.157       .  T
C1677      C1678   1.411       .  A
C1677      C1682   1.422       .  A
C1678      C1679   1.406       .  A
C1678      H1683   1.084       .  S
C1679      C1680   1.411       .  A
C1679      C1686   1.443       .  S
C1680      C1681   1.398       .  A
C1681      C1682   1.395       .  A
C1681      H1684   1.086       .  S
C1682      C1685   1.444       .  S
C1685      N1687   1.157       .  T
C1686      N1688   1.157       .  T
C1689      C1690   1.396       .  A
C1689      C1694   1.402       .  A
C1690      C1691   1.388       .  A
C1690      H1695   1.083       .  S
C1691      C1692   1.410       .  A
C1691      C1698   1.445       .  S
C1692      C1693   1.413       .  A
C1693      C1694   1.406       .  A
C1693      H1696   1.084       .  S
C1694      C1697   1.443       .  S
C1697      N1699   1.157       .  T
C1698      N1700   1.157       .  T
C1701      C1702   1.398       .  A
C1701      C1706   1.408       .  A
C1702      C1703   1.393       .  A
C1702      H1707   1.086       .  S
C1703      C1704   1.411       .  A
C1703      C1710   1.445       .  S
C1704      C1705   1.405       .  A
C1705      C1706   1.405       .  A
C1705      H1708   1.085       .  S
C1706      C1709   1.443       .  S
C1709      N1711   1.157       .  T
C1710      N1712   1.157       .  T
C1713      C1714   1.399       .  A
C1713      C1718   1.416       .  A
C1714      C1715   1.378       .  A
C1714      H1719   1.085       .  S
C1715      C1716   1.418       .  A
C1715      C1722   1.448       .  S
C1716      C1717   1.400       .  A
C1717      C1718   1.388       .  A
C1717      H1720   1.085       .  S
C1718      C1721   1.446       .  S
C1721      N1723   1.157       .  T
C1722      N1724   1.157       .  T
C1725      C1726   1.397       .  A
C1725      C1730   1.405       .  A
C1726      C1727   1.384       .  A
C1726      H1731   1.086       .  S
C1727      C1728   1.403       .  A
C1727      C1734   1.447       .  S
C1728      C1729   1.398       .  A
C1729      C1730   1.392       .  A
C1729      H1732   1.085       .  S
C1730      C1733   1.443       .  S
C1733      N1735   1.157       .  T
C1734      N1736   1.157       .  T
C1737      C1738   1.409       .  A
C1737      C1742   1.407       .  A
C1738      C1739   1.392       .  A
C1738      H1743   1.085       .  S
C1739      C1740   1.405       .  A
C1739      C1746   1.444       .  S
C1740      C1741   1.405       .  A
C1741      C1742   1.394       .  A
C1741      H1744   1.079       .  S
C1742      C1745   1.446       .  S
C1745      N1747   1.158       .  T
C1746      N1748   1.157       .  T
C1749      C1750   1.386       .  A
C1749      C1754   1.405       .  A
C1750      C1751   1.379       .  A
C1750      H1755   1.077       .  S
C1751      C1752   1.411       .  A
C1751      C1758   1.443       .  S
C1752      C1753   1.410       .  A
C1753      C1754   1.404       .  A
C1753      H1756   1.084       .  S
C1754      C1757   1.443       .  S
C1757      N1759   1.157       .  T
C1758      N1760   1.157       .  T
