geometry optimzed in LAMMPS
_audit_creation_date              2020-11-30 
_audit_creation_method            'lammps2cif' 
_symmetry_space_group_name_H-M    'P1' 
_symmetry_Int_Tables_number       1 
_symmetry_cell_setting            triclinic 
loop_ 
_symmetry_equiv_pos_as_xyz 
  x,y,z 
_cell_length_a                    57.26942128 
_cell_length_b                    57.675837821322204 
_cell_length_c                    56.06279005622381 
_cell_angle_alpha                 88.259739731298 
_cell_angle_beta                  88.69594955118507 
_cell_angle_gamma                 90.66659568927349 
loop_ 
_atom_site_label 
_atom_site_type_symbol 
_atom_site_fract_x 
_atom_site_fract_y 
_atom_site_fract_z 
_atom_site_charge 
O1          O  0.77083596  0.72824927  0.69397744    -0.80400
O2          O  0.77174506  0.73001079  0.80226542    -0.65100
O3          O  0.74978395  0.72340026  0.73931148    -1.11700
C4          C  0.74116143  0.80428927  0.74172193     1.06500
O5          O  0.74057500  0.75045549  0.81126193    -0.78300
O6          O  0.70974323  0.76332115  0.77729551    -0.65900
Ni7        Ni  0.76525261  0.70396709  0.71749977     1.34900
C8          C  0.70178080  0.75891695  0.75693567     0.85200
O9          O  0.76569004  0.69288331  0.77569415    -0.78800
O10         O  0.76109257  0.67821665  0.73940951    -0.89100
C11         C  0.75777780  0.73804373  0.81772965     0.84800
O12         O  0.79661154  0.70856879  0.72719628    -0.67300
O13         O  0.73731730  0.80053415  0.76406466    -0.86600
C14         C  0.80579773  0.72064421  0.74308089     0.85600
C15         C  0.76391006  0.67584136  0.76183924     1.07200
H16         H  0.77316469  0.76567064  0.76415443     0.39000
O17         O  0.75798115  0.75816665  0.76453689    -1.09200
O18         O  0.71499297  0.75586162  0.73869647    -0.65900
Ni19       Ni  0.74850454  0.75599105  0.73240328     1.26300
O20         O  0.79408956  0.72921310  0.76018943    -0.66100
O21         O  0.74740515  0.78881626  0.72720830    -0.78400
C22         C  0.75692427  0.74328232  0.68585890     0.85000
O23         O  0.74177286  0.75244424  0.69942031    -0.65600
Ni24       Ni  0.73948688  0.77464024  0.78652877     1.27400
Ni25       Ni  0.76177025  0.72576720  0.77053145     1.26100
H26         H  0.73399187  0.71741989  0.74111151     0.39600
O27         O  0.31016507  0.74234907  0.75978875    -0.80400
O28         O  0.20352595  0.72386959  0.75221537    -0.65100
O29         O  0.26941083  0.72663631  0.73985046    -1.11700
C30         C  0.25538752  0.80766480  0.72604019     1.06500
O31         O  0.19772061  0.74665473  0.72045478    -0.78300
O32         O  0.22959044  0.76864362  0.69369018    -0.65900
Ni33       Ni  0.29114491  0.71452280  0.76175873     1.34900
C34         C  0.24775396  0.75843323  0.68645810     0.85200
O35         O  0.23739962  0.69101575  0.75166068    -0.78800
O36         O  0.27399514  0.68562382  0.76449414    -0.89100
C37         C  0.19030790  0.73178059  0.73599654     0.84800
O38         O  0.27675348  0.72456506  0.79071561    -0.67300
O39         O  0.23368785  0.80241347  0.72692549    -0.86600
C40         C  0.25537224  0.72628150  0.79682920     0.85600
C41         C  0.25360166  0.67798454  0.75988923     1.07200
H42         H  0.23797045  0.76451021  0.75891276     0.39000
O43         O  0.23884285  0.75781490  0.74333333    -1.09200
O44         O  0.26466993  0.75328515  0.69993056    -0.65900
Ni45       Ni  0.27085758  0.75933501  0.73305895     1.26300
O46         O  0.23900467  0.72691665  0.78179658    -0.66100
O47         O  0.27152849  0.79254686  0.72686181    -0.78400
C48         C  0.31782766  0.75151879  0.74017970     0.85000
O49         O  0.30346599  0.75866956  0.72473441    -0.65600
Ni50       Ni  0.21656700  0.77382523  0.72454571     1.27400
Ni51       Ni  0.23695057  0.72451292  0.74746618     1.26100
H52         H  0.27201522  0.71856970  0.72518741     0.39600
N53         N  0.79421737  0.79302468  0.49771999    -0.03000
C54         C  0.78131585  0.80104838  0.51633368    -0.00400
C55         C  0.76502224  0.81683254  0.50844265    -0.23300
C56         C  0.76751915  0.81843199  0.48413726    -0.23500
C57         C  0.78533639  0.80367600  0.47796158    -0.00500
H58         H  0.75162608  0.82497121  0.51911991     0.13300
H59         H  0.75657474  0.82822438  0.47210064     0.13300
N60         N  0.99883773  0.72559543  0.72468495    -0.03000
C61         C  0.01757355  0.72004371  0.73803420    -0.00400
C62         C  0.01144866  0.71874537  0.76199087    -0.23300
C63         C  0.98803331  0.72318936  0.76358807    -0.23500
C64         C  0.98066510  0.72736198  0.74055920    -0.00500
H65         H  0.02288908  0.71515384  0.77672052     0.13300
H66         H  0.97739291  0.72312382  0.77979460     0.13300
N67         N  0.00518446  0.68824440  0.28170207    -0.03000
C68         C  0.02449718  0.68226179  0.26888823    -0.00400
C69         C  0.01821096  0.67157515  0.24823586    -0.23300
C70         C  0.99422635  0.67135309  0.24802415    -0.23500
C71         C  0.98669913  0.68177802  0.26863065    -0.00500
H72         H  0.02982955  0.66604697  0.23407270     0.13300
H73         H  0.98347379  0.66572367  0.23361471     0.13300
O74         O  0.00622254  0.75182970  0.46349153    -0.73900
O75         O  0.00789846  0.75597301  0.53224146    -0.74000
O76         O  0.04040474  0.75144059  0.49659640    -0.74000
O77         O  0.97383465  0.75732409  0.49924736    -0.74100
O78         O  0.96945974  0.71889544  0.50310460    -0.74000
O79         O  0.03683358  0.71297297  0.50018551    -0.74000
O80         O  0.00381981  0.71748873  0.53560760    -0.73900
O81         O  0.00199157  0.71347867  0.46779675    -0.74000
Ni82       Ni  0.00724418  0.75550058  0.49774374     1.25400
Ni83       Ni  0.00294682  0.71434953  0.50180386     1.25400
C84         C  0.00365355  0.73179163  0.45437600     0.88300
C85         C  0.00588668  0.73723581  0.54515912     0.88200
C86         C  0.04970152  0.73138441  0.49787309     0.88200
C87         C  0.96068687  0.73927890  0.50163480     0.88400
N88         N  0.22642586  0.72840842  0.49425564    -0.03000
C89         C  0.24122016  0.72321081  0.51229487    -0.00400
C90         C  0.26343639  0.71926766  0.50325092    -0.23300
C91         C  0.26239561  0.72173632  0.47894163    -0.23500
C92         C  0.23962611  0.72721369  0.47378647    -0.00500
H93         H  0.27898268  0.71591718  0.51335922     0.13300
H94         H  0.27690148  0.72054258  0.46633967     0.13300
O95         O  0.19514536  0.75534489  0.26106702    -0.80400
O96         O  0.30113512  0.75804948  0.26478524    -0.65100
O97         O  0.24014234  0.76120536  0.24007691    -1.11700
C98         C  0.24713918  0.68184334  0.22999032     1.06500
O99         O  0.31404262  0.73599381  0.23535084    -0.78300
O100        O  0.28099355  0.72892126  0.20142890    -0.65900
Ni101      Ni  0.21721347  0.78034546  0.25433079     1.34900
C102        C  0.26068663  0.72970741  0.19274821     0.85200
O103        O  0.27330849  0.79367986  0.25541371    -0.78800
O104        O  0.23733992  0.80691073  0.24867627    -0.89100
C105        C  0.31762726  0.74951770  0.25256467     0.84800
O106        O  0.22649126  0.77728863  0.28678452    -0.67300
O107        O  0.26812320  0.68765928  0.22396186    -0.86600
C108        C  0.24182283  0.76530903  0.29725742     0.85600
C109        C  0.25919096  0.81021470  0.25140948     1.07200
H110        H  0.26772429  0.72018768  0.26564806     0.39000
O111        O  0.26731397  0.72778853  0.25006937    -1.09200
O112        O  0.24214821  0.72825102  0.20585424    -0.65900
Ni113      Ni  0.23582784  0.72836562  0.24020325     1.26300
O114        O  0.25910080  0.75681120  0.28587334    -0.66100
O115        O  0.23319607  0.69551166  0.24040294    -0.78400
C116        C  0.18970670  0.73770184  0.24920435     0.85000
O117        O  0.20343789  0.72994562  0.23333881    -0.65600
Ni118      Ni  0.28960795  0.71300581  0.23021364     1.27400
Ni119      Ni  0.27043036  0.76050267  0.25311471     1.26100
H120        H  0.24203573  0.76686405  0.22379147     0.39600
O121        O  0.69950190  0.74414881  0.24974999    -0.80400
O122        O  0.80675219  0.72713487  0.24454392    -0.65100
O123        O  0.74394335  0.73372384  0.26631616    -1.11700
C124        C  0.76025575  0.81435495  0.25226589     1.06500
O125        O  0.81877119  0.75641576  0.26574684    -0.78300
O126        O  0.79101042  0.78503725  0.28934501    -0.65900
Ni127      Ni  0.71886133  0.71698104  0.25315847     1.34900
C128        C  0.77372874  0.77843581  0.30249153     0.85200
O129        O  0.77408406  0.69678159  0.26023728    -0.78800
O130        O  0.73579801  0.68841558  0.25613541    -0.89100
C131        C  0.82238203  0.73684445  0.25653359     0.84800
O132        O  0.72834505  0.72022688  0.22031523    -0.67300
O133        O  0.78151586  0.80896027  0.24827838    -0.86600
C134        C  0.74845232  0.72147057  0.21030456     0.85600
C135        C  0.75700911  0.68248862  0.25900784     1.07200
H136        H  0.77199895  0.76516206  0.23112767     0.39000
O137        O  0.77374927  0.76240551  0.24807202    -1.09200
O138        O  0.75525004  0.76930774  0.29439306    -0.65900
Ni139      Ni  0.74376065  0.76660755  0.26241150     1.26300
O140        O  0.76715822  0.72463899  0.22158940    -0.66100
O141        O  0.74426338  0.79966154  0.25826900    -0.78400
C142        C  0.69585159  0.75962077  0.26516255     0.85000
O143        O  0.71289821  0.76872705  0.27566670    -0.65600
Ni144      Ni  0.79906338  0.78181284  0.25648811     1.27400
Ni145      Ni  0.77482447  0.72963013  0.25431174     1.26100
H146        H  0.74382570  0.72964235  0.28316346     0.39600
N147        N  0.76311564  0.71755104  0.01398958    -0.03000
C148        C  0.75678669  0.72992086  0.03320515    -0.00400
C149        C  0.75424782  0.75302816  0.02671851    -0.23300
C150        C  0.75866625  0.75487769  0.00255412    -0.23500
C151        C  0.76427392  0.73291765  0.99513239    -0.00500
H152        H  0.74928459  0.76693633  0.03825899     0.13300
H153        H  0.75691220  0.77042047  0.99148705     0.13300
N154        N  0.78207685  0.48889182  0.79309070    -0.03000
C155        C  0.77978970  0.50765784  0.77834150    -0.00400
C156        C  0.78018920  0.50129019  0.75479108    -0.23300
C157        C  0.78243035  0.47757526  0.75508701    -0.23500
C158        C  0.78337563  0.47040482  0.77879151    -0.00500
H159        H  0.77800726  0.51254073  0.73922079     0.13300
H160        H  0.78188548  0.46659254  0.73979300     0.13300
N161        N  0.77458348  0.28144925  0.01785122    -0.03000
C162        C  0.77431282  0.26713727  0.99913695    -0.00400
C163        C  0.77487613  0.24423031  0.00709108    -0.23300
C164        C  0.77578586  0.24444714  0.03151936    -0.23500
C165        C  0.77581479  0.26748962  0.03762560    -0.00500
H166        H  0.77450220  0.22902347  0.99625469     0.13300
H167        H  0.77606977  0.22944018  0.04357138     0.13300
O168        O  0.75246634  0.49973887  0.05059270    -0.73900
O169        O  0.75533383  0.49844440  0.98236536    -0.74000
O170        O  0.75490397  0.46570020  0.01791667    -0.74000
O171        O  0.75331563  0.53239037  0.01478774    -0.74100
O172        O  0.79221625  0.53370695  0.01648925    -0.74000
O173        O  0.79385424  0.46722697  0.01833364    -0.74000
O174        O  0.79422568  0.50070051  0.98300789    -0.73900
O175        O  0.79141131  0.50042196  0.05162579    -0.74000
Ni176      Ni  0.75261909  0.49901682  0.01641930     1.25400
Ni177      Ni  0.79431825  0.50055457  0.01737767     1.25400
C178        C  0.77138003  0.50020658  0.06232143     0.88300
C179        C  0.77519521  0.49949701  0.97143738     0.88200
C180        C  0.77470609  0.45554607  0.01832500     0.88200
C181        C  0.77254264  0.54394579  0.01540422     0.88400
N182        N  0.74364251  0.49476469  0.23951350    -0.03000
C183        C  0.74507516  0.51188359  0.25550792    -0.00400
C184        C  0.73781867  0.50379762  0.27792093    -0.23300
C185        C  0.73125458  0.48102882  0.27559590    -0.23500
C186        C  0.73454243  0.47605613  0.25178617    -0.00500
H187        H  0.73724619  0.51347484  0.29415773     0.13300
H188        H  0.72525982  0.46920918  0.28986027     0.13300
O189        O  0.73275951  0.18493559  0.26607272    -0.80400
O190        O  0.72787209  0.29112153  0.26033438    -0.65100
O191        O  0.75176304  0.23002057  0.26025771    -1.11700
C192        C  0.75629888  0.23663202  0.34236750     1.06500
O193        O  0.75345061  0.30356237  0.28619476    -0.78300
O194        O  0.78614605  0.27108540  0.29502776    -0.65900
Ni195      Ni  0.73851610  0.20732333  0.24032365     1.34900
C196        C  0.79499628  0.25108320  0.29398804     0.85200
O197        O  0.74085158  0.26386007  0.22565871    -0.78800
O198        O  0.74370562  0.22753248  0.21274917    -0.89100
C199        C  0.73880026  0.30748981  0.26980793     0.84800
O200        O  0.70647554  0.21590905  0.24306219    -0.67300
O201        O  0.76223299  0.25740267  0.33634518    -0.86600
C202        C  0.69601505  0.23287740  0.25223187     0.85600
C203        C  0.74392414  0.24949536  0.20917669     1.07200
H204        H  0.72325863  0.25709713  0.29984339     0.39000
O205        O  0.73907226  0.25683403  0.29349955    -1.09200
O206        O  0.78279466  0.23251508  0.29608279    -0.65900
Ni207      Ni  0.74969138  0.22560343  0.29405571     1.26300
O208        O  0.70698285  0.25047504  0.25965776    -0.66100
O209        O  0.74749892  0.22262199  0.32786324    -0.78400
C210        C  0.74596340  0.17917815  0.28313152     0.85000
O211        O  0.75854630  0.19393999  0.29328895    -0.65600
Ni212      Ni  0.75719195  0.27893249  0.30995576     1.27400
Ni213      Ni  0.73935261  0.26044798  0.25962557     1.26100
H214        H  0.76802234  0.23143020  0.25539280     0.39600
O215        O  0.68678730  0.24550737  0.78896175    -0.80400
O216        O  0.79763453  0.25540267  0.78262282    -0.65100
O217        O  0.73281447  0.25095680  0.77055659    -1.11700
C218        C  0.73984781  0.17137635  0.76900128     1.06500
O219        O  0.80941325  0.21938829  0.77556241    -0.78300
O220        O  0.77812802  0.21611216  0.74019523    -0.65900
Ni221      Ni  0.71147260  0.26899776  0.78854226     1.34900
C222        C  0.75839830  0.21756384  0.73032962     0.85200
O223        O  0.76607046  0.28572494  0.76986689    -0.78800
O224        O  0.73295099  0.29521213  0.78900252    -0.89100
C225        C  0.81343853  0.24050079  0.77976952     0.84800
O226        O  0.72224678  0.25770302  0.81863158    -0.67300
O227        O  0.76035559  0.17683449  0.76170722    -0.86600
C228        C  0.74317060  0.25930482  0.82550559     0.85600
C229        C  0.75275374  0.30056914  0.77928624     1.07200
H230        H  0.76258139  0.21741385  0.80251484     0.39000
O231        O  0.76199444  0.22034784  0.78548067    -1.09200
O232        O  0.73908351  0.21533704  0.74207319    -0.65900
Ni233      Ni  0.73043261  0.21835914  0.77548866     1.26300
O234        O  0.76060869  0.25993663  0.81092831    -0.66100
O235        O  0.72765289  0.18550039  0.78054600    -0.78400
C236        C  0.68286069  0.22846349  0.77557137     0.85000
O237        O  0.69934339  0.21781496  0.76555765    -0.65600
Ni238      Ni  0.78313407  0.20003413  0.76960557     1.27400
Ni239      Ni  0.76491537  0.25326407  0.77750067     1.26100
H240        H  0.73086189  0.25511912  0.75389998     0.39600
N241        N  0.71130132  0.98937099  0.72045763    -0.03000
C242        C  0.72637510  0.97284843  0.71342874    -0.00400
C243        C  0.74891915  0.98167437  0.71216648    -0.23300
C244        C  0.74761065  0.00453950  0.71821696    -0.23500
C245        C  0.72432485  0.00890775  0.72301986    -0.00500
H246        H  0.76474083  0.97218015  0.70858157     0.13300
H247        H  0.76214842  0.01652790  0.71969164     0.13300
N248        N  0.50972932  0.76804925  0.73224397    -0.03000
C249        C  0.52791340  0.75431163  0.73819960    -0.00400
C250        C  0.52133534  0.73120871  0.73719985    -0.23300
C251        C  0.49824966  0.73072388  0.73104126    -0.23500
C252        C  0.49150026  0.75353860  0.72815588    -0.00500
H253        H  0.53213043  0.71630108  0.74086753     0.13300
H254        H  0.48736549  0.71540412  0.72950012     0.13300
N255        N  0.27184696  0.99755945  0.74446030    -0.03000
C256        C  0.25734437  0.97868057  0.74562606    -0.00400
C257        C  0.23429513  0.98555278  0.74595457    -0.23300
C258        C  0.23453858  0.00937741  0.74503393    -0.23500
C259        C  0.25769865  0.01634533  0.74406060    -0.00500
H260        H  0.21895461  0.97439754  0.74644290     0.13300
H261        H  0.21943948  0.02048726  0.74505077     0.13300
O262        O  0.52538462  0.98280837  0.74955865    -0.73900
O263        O  0.45838696  0.98261911  0.75238555    -0.74000
O264        O  0.49164633  0.94966141  0.74897612    -0.74000
O265        O  0.49228731  0.01569650  0.75297148    -0.74100
O266        O  0.49052635  0.01921613  0.71330355    -0.74000
O267        O  0.49216000  0.95304136  0.70917905    -0.74000
O268        O  0.45759428  0.98495530  0.71262638    -0.73900
O269        O  0.52469270  0.98737678  0.70991397    -0.74000
Ni270      Ni  0.49190639  0.98255165  0.75237732     1.25400
Ni271      Ni  0.49116029  0.98624659  0.70982138     1.25400
C272        C  0.53604834  0.98549317  0.72930542     0.88300
C273        C  0.44694272  0.98370874  0.73300874     0.88200
C274        C  0.49227167  0.94054295  0.72844668     0.88200
C275        C  0.49182280  0.02831297  0.73380347     0.88400
N276        N  0.49797516  0.20151558  0.74425132    -0.03000
C277        C  0.51752574  0.21485915  0.74155818    -0.00400
C278        C  0.51227241  0.23797052  0.74444140    -0.23300
C279        C  0.48872091  0.23884645  0.74929292    -0.23500
C280        C  0.48049452  0.21626760  0.74923458    -0.00500
H281        H  0.52447474  0.25244159  0.74440933     0.13300
H282        H  0.47878665  0.25415287  0.75329489     0.13300
O283        O  0.30598360  0.22520050  0.74642844    -0.80400
O284        O  0.20194436  0.22162215  0.74785335    -0.65100
O285        O  0.26306859  0.24669659  0.74270998    -1.11700
C286        C  0.25666386  0.25339507  0.82509430     1.06500
O287        O  0.19025842  0.25021555  0.77090002    -0.78300
O288        O  0.22399379  0.28312258  0.77966094    -0.65900
Ni289      Ni  0.28511490  0.23382317  0.72145667     1.34900
C290        C  0.24460620  0.29160282  0.77807255     0.85200
O291        O  0.22959853  0.23247230  0.71007191    -0.78800
O292        O  0.26536798  0.24182675  0.69541402    -0.89100
C293        C  0.18589837  0.23369890  0.75691525     0.84800
O294        O  0.27426440  0.20232020  0.72185896    -0.67300
O295        O  0.23568014  0.25857583  0.81995437    -0.86600
C296        C  0.25979896  0.19130492  0.73550173     0.85600
C297        C  0.24342961  0.23911052  0.69292212     1.07200
H298        H  0.23556463  0.22020597  0.78533161     0.39000
O299        O  0.23625278  0.23554831  0.77790584    -1.09200
O300        O  0.26267280  0.27885727  0.77753670    -0.65900
Ni301      Ni  0.26796534  0.24561656  0.77626193     1.26300
O302        O  0.24355236  0.20169002  0.74667773    -0.66100
O303        O  0.27098441  0.24477623  0.81013764    -0.78400
C304        C  0.31338449  0.23775302  0.76295321     0.85000
O305        O  0.30053974  0.25259144  0.77292347    -0.65600
Ni306      Ni  0.21436306  0.25401361  0.79432287     1.27400
Ni307      Ni  0.23275755  0.23346813  0.74431374     1.26100
H308        H  0.26146101  0.26271589  0.73753224     0.39600
N309        N  0.24487837  0.71393808  0.99609023    -0.03000
C310        C  0.24252920  0.72700962  0.97559046    -0.00400
C311        C  0.24323595  0.75033125  0.98046860    -0.23300
C312        C  0.24656324  0.75186453  0.00449297    -0.23500
C313        C  0.24793941  0.72941699  0.01366073    -0.00500
H314        H  0.24202585  0.76472349  0.96772881     0.13300
H315        H  0.24820424  0.76769319  0.01423707     0.13300
N316        N  0.24032362  0.48538370  0.77855915    -0.03000
C317        C  0.23685907  0.50336666  0.76279641    -0.00400
C318        C  0.23438637  0.49518735  0.74008310    -0.23300
C319        C  0.23629385  0.47145849  0.74186237    -0.23500
C320        C  0.24006806  0.46578313  0.76560049    -0.00500
H321        H  0.23225079  0.50547476  0.72383047     0.13300
H322        H  0.23586187  0.45963188  0.72725167     0.13300
N323        N  0.28462575  0.28003022  0.01648206    -0.03000
C324        C  0.28605212  0.26480963  0.99851381    -0.00400
C325        C  0.29024609  0.24268001  0.00741155    -0.23300
C326        C  0.29131971  0.24416078  0.03171190    -0.23500
C327        C  0.28747576  0.26708568  0.03682402    -0.00500
H328        H  0.29169435  0.22704285  0.99731131     0.13300
H329        H  0.29387338  0.22994128  0.04439062     0.13300
O330        O  0.22807899  0.52665610  0.00383910    -0.73900
O331        O  0.23370966  0.46009469  0.00135538    -0.74000
O332        O  0.23043261  0.49092549  0.03650234    -0.74000
O333        O  0.23071777  0.49562496  0.96838806    -0.74100
O334        O  0.26958683  0.49848686  0.96752129    -0.74000
O335        O  0.26923064  0.49509192  0.03633046    -0.74000
O336        O  0.27250677  0.46396305  0.00118192    -0.73900
O337        O  0.26693440  0.52993222  0.00262412    -0.74000
Ni338      Ni  0.22935347  0.49321261  0.00253171     1.25400
Ni339      Ni  0.27093896  0.49703432  0.00189912     1.25400
C340        C  0.24674775  0.53923677  0.00318393     0.88300
C341        C  0.25413997  0.45113345  0.00100936     0.88200
C342        C  0.24961719  0.49222448  0.04763381     0.88200
C343        C  0.25010311  0.49766290  0.95667149     0.88400
N344        N  0.19544872  0.49890418  0.21630139    -0.03000
C345        C  0.18971097  0.51948376  0.22574760    -0.00400
C346        C  0.17872384  0.51588310  0.24775896    -0.23300
C347        C  0.17808294  0.49226539  0.25217085    -0.23500
C348        C  0.18880952  0.48230387  0.23273605    -0.00500
H349        H  0.17343963  0.52904660  0.26005908     0.13300
H350        H  0.17189005  0.48342761  0.26844571     0.13300
N351        N  0.50515771  0.78359063  0.28366730    -0.03000
C352        C  0.52545360  0.77168633  0.28530508    -0.00400
C353        C  0.52110255  0.74807979  0.28531303    -0.23300
C354        C  0.49745820  0.74522656  0.28313466    -0.23500
C355        C  0.48807372  0.76717994  0.28209666    -0.00500
H356        H  0.53389740  0.73442742  0.28607550     0.13300
H357        H  0.48811366  0.72890351  0.28190035     0.13300
N358        N  0.72756386  0.99226450  0.30460140    -0.03000
C359        C  0.73990238  0.97247825  0.30539975    -0.00400
C360        C  0.76113849  0.97602172  0.31595219    -0.23300
C361        C  0.76196098  0.99902100  0.32172453    -0.23500
C362        C  0.74110792  0.00856836  0.31456872    -0.00500
H363        H  0.77496693  0.96354937  0.31806727     0.13300
H364        H  0.77666208  0.00808339  0.32908737     0.13300
N365        N  0.29560066  0.99993932  0.25035009    -0.03000
C366        C  0.28075924  0.98148365  0.24855470    -0.00400
C367        C  0.25824168  0.98899750  0.24515570    -0.23300
C368        C  0.25919819  0.01277799  0.24425595    -0.23500
C369        C  0.28223889  0.01912606  0.24738856    -0.00500
H370        H  0.24279630  0.97826397  0.24332712     0.13300
H371        H  0.24462194  0.02428404  0.24164076     0.13300
O372        O  0.51099706  0.96860635  0.28515804    -0.73900
O373        O  0.51471289  0.03509638  0.28212809    -0.74000
O374        O  0.47962163  0.00299576  0.28218735    -0.74000
O375        O  0.54629808  0.00035352  0.28498963    -0.74100
O376        O  0.54896893  0.00112075  0.24518435    -0.74000
O377        O  0.48222161  0.00084909  0.24254170    -0.74000
O378        O  0.51577872  0.03456953  0.24234640    -0.73900
O379        O  0.51502246  0.96775314  0.24555144    -0.74000
Ni380      Ni  0.51288264  0.00183567  0.28502242     1.25400
Ni381      Ni  0.51563738  0.00111226  0.24246974     1.25400
C382        C  0.51229563  0.95720782  0.26591625     0.88300
C383        C  0.51539899  0.04580891  0.26175559     0.88200
C384        C  0.46998118  0.00150163  0.26189806     0.88200
C385        C  0.55856076  0.00038385  0.26559432     0.88400
N386        N  0.50180857  0.21923061  0.27029574    -0.03000
C387        C  0.48377274  0.23225253  0.27836540    -0.00400
C388        C  0.49135556  0.25463463  0.28223617    -0.23300
C389        C  0.51479092  0.25548627  0.27665951    -0.23500
C390        C  0.52083205  0.23365108  0.26934619    -0.00500
H391        H  0.48080385  0.26895280  0.28802513     0.13300
H392        H  0.52625622  0.27044597  0.27776723     0.13300
N393        N  0.76882403  0.20923161  0.53492892    -0.03000
C394        C  0.75409199  0.20266116  0.51770802    -0.00400
C395        C  0.73386161  0.19280538  0.52767396    -0.23300
C396        C  0.73591103  0.19370901  0.55192439    -0.23500
C397        C  0.75741155  0.20376298  0.55577227    -0.00500
H398        H  0.71885568  0.18656708  0.51826059     0.13300
H399        H  0.72283287  0.18843172  0.56530123     0.13300
N400        N  0.99761375  0.22774734  0.73147328    -0.03000
C401        C  0.97967887  0.22798896  0.74776496    -0.00400
C402        C  0.98654942  0.21901036  0.76958572    -0.23300
C403        C  0.00938363  0.21279878  0.76679876    -0.23500
C404        C  0.01567084  0.21814130  0.74333636    -0.00500
H405        H  0.97612969  0.21763746  0.78593072     0.13300
H406        H  0.02052156  0.20598098  0.78061693     0.13300
N407        N  0.98793405  0.25827337  0.28347020    -0.03000
C408        C  0.96805624  0.25762767  0.27073023    -0.00400
C409        C  0.97309612  0.26112819  0.24666849    -0.23300
C410        C  0.99689844  0.26391978  0.24439655    -0.23500
C411        C  0.00562463  0.26171982  0.26711650    -0.00500
H412        H  0.96077323  0.26138277  0.23231342     0.13300
H413        H  0.00686401  0.26660513  0.22789032     0.13300
O414        O  0.98668569  0.22244858  0.47396521    -0.73900
O415        O  0.98655814  0.22291443  0.54256191    -0.74000
O416        O  0.95303369  0.22088874  0.50922895    -0.74000
O417        O  0.02003273  0.22420234  0.50743213    -0.74100
O418        O  0.01862525  0.26281545  0.50470960    -0.74000
O419        O  0.95149059  0.25948093  0.50944636    -0.74000
O420        O  0.98658199  0.26160323  0.54103865    -0.73900
O421        O  0.98370493  0.26100534  0.47279550    -0.74000
Ni422      Ni  0.98659797  0.22123567  0.50831597     1.25400
Ni423      Ni  0.98501421  0.26260172  0.50689255     1.25400
C424        C  0.98515638  0.24172073  0.46213526     0.88300
C425        C  0.98701474  0.24237697  0.55303445     0.88200
C426        C  0.94121859  0.23957535  0.51035101     0.88200
C427        C  0.03037265  0.24402649  0.50590633     0.88400
N428        N  0.20537312  0.26115379  0.50222733    -0.03000
C429        C  0.21997233  0.26510787  0.48307809    -0.00400
C430        C  0.24168499  0.27239344  0.49043703    -0.23300
C431        C  0.24056518  0.27250225  0.51494016    -0.23500
C432        C  0.21813852  0.26563253  0.52166259    -0.00500
H433        H  0.25697413  0.27615826  0.47922103     0.13300
H434        H  0.25483890  0.27612794  0.52664225     0.13300
O435        O  0.24087622  0.19147141  0.27109253    -0.80400
O436        O  0.22190964  0.29962462  0.26580925    -0.65100
O437        O  0.23185665  0.23597252  0.25200067    -1.11700
C438        C  0.31195637  0.25508947  0.26723342     1.06500
O439        O  0.25370580  0.31141699  0.24556786    -0.78300
O440        O  0.28403526  0.28321016  0.22570507    -0.65900
Ni441      Ni  0.21444829  0.21211254  0.26874502     1.34900
C442        C  0.27725259  0.26596111  0.21405696     0.85200
O443        O  0.19373085  0.26541700  0.25226980    -0.78800
O444        O  0.18586778  0.22965395  0.26763940    -0.89100
C445        C  0.23338868  0.31526860  0.25401276     0.84800
O446        O  0.22039134  0.22309572  0.29972392    -0.67300
O447        O  0.30544079  0.27605688  0.26858940    -0.86600
C448        C  0.21766598  0.24350679  0.30707601     0.85600
C449        C  0.17948943  0.24956212  0.25982601     1.07200
H450        H  0.25960757  0.26653453  0.28503118     0.39000
O451        O  0.25849464  0.26738241  0.26786208    -1.09200
O452        O  0.26888113  0.24743397  0.22401518    -0.65900
Ni453      Ni  0.26477877  0.23705153  0.25689269     1.26300
O454        O  0.21778979  0.26137501  0.29313701    -0.66100
O455        O  0.29802050  0.23868817  0.26188447    -0.78400
C456        C  0.25901512  0.18869169  0.25783848     0.85000
O457        O  0.26895086  0.20588860  0.24691422    -0.65600
Ni458      Ni  0.27854588  0.29247412  0.25758597     1.27400
Ni459      Ni  0.22609232  0.26733467  0.25985990     1.26100
H460        H  0.22892278  0.23434281  0.23522322     0.39600
C461        C  0.22568551  0.24181079  0.42081570    -0.22000
C462        C  0.20951627  0.25534482  0.40856886     0.10000
C463        C  0.19506830  0.27062150  0.42121552     0.10400
C464        C  0.19798177  0.27280480  0.44591077    -0.16900
C465        C  0.21501472  0.26000865  0.45798200    -0.27300
C466        C  0.22859830  0.24382289  0.44534371     0.18700
C467        C  0.20953906  0.25410246  0.38227455     0.12700
C468        C  0.17693982  0.28477864  0.40856850    -0.11700
H469        H  0.18754595  0.28508272  0.45564193     0.13000
C470        C  0.24623475  0.22818593  0.45702697    -0.22500
H471        H  0.23650965  0.22988648  0.41100488     0.08600
C472        C  0.22458800  0.26851523  0.36794464     0.05000
C473        C  0.22642463  0.26498195  0.34336080    -0.19700
C474        C  0.21419416  0.24684565  0.33292266    -0.12000
C475        C  0.19869668  0.23267573  0.34723564     0.13700
C476        C  0.19655376  0.23654454  0.37180617    -0.22400
C477        C  0.23933627  0.28709494  0.37875236    -0.05500
H478        H  0.23811313  0.27592711  0.33234629     0.15200
C479        C  0.18407534  0.21379333  0.33672380    -0.15700
H480        H  0.18517273  0.22548364  0.38303519     0.09500
H481        H  0.26395091  0.23238793  0.44953911     0.07400
H482        H  0.24191446  0.20984184  0.45332643     0.08600
H483        H  0.24656558  0.22952134  0.47666701     0.07600
H484        H  0.16424888  0.27302790  0.40017237     0.02500
H485        H  0.18538990  0.29617433  0.39450989     0.03000
H486        H  0.16717029  0.29590085  0.42107263     0.06500
H487        H  0.25021881  0.29672387  0.36502097     0.05500
H488        H  0.25120509  0.27912215  0.39197643    -0.00300
H489        H  0.22797817  0.29973270  0.38780576     0.01200
H490        H  0.19547291  0.20009066  0.32958073     0.04800
H491        H  0.17334709  0.22120199  0.32218153     0.06800
H492        H  0.17203385  0.20541532  0.35029468     0.07700
C493        C  0.14566988  0.23509472  0.49235688    -0.22000
C494        C  0.13132754  0.25195648  0.50242307     0.10000
C495        C  0.14163346  0.27134400  0.51297546     0.10400
C496        C  0.16599206  0.27396783  0.51223764    -0.16900
C497        C  0.18045417  0.25719808  0.50222400    -0.27300
C498        C  0.17016665  0.23723671  0.49255566     0.18700
C499        C  0.10555414  0.24891880  0.50228681     0.12700
C500        C  0.12696877  0.28903284  0.52544764    -0.11700
H501        H  0.17391309  0.28925253  0.51953006     0.13000
C502        C  0.18438539  0.21759042  0.48318167    -0.22500
H503        H  0.13770168  0.21996386  0.48472053     0.08600
C504        C  0.09190460  0.26031041  0.48499115     0.05000
C505        C  0.06741394  0.25857774  0.48682668    -0.19700
C506        C  0.05625173  0.24527878  0.50525614    -0.12000
C507        C  0.07006967  0.23347030  0.52234526     0.13700
C508        C  0.09453336  0.23542088  0.52053449    -0.22400
C509        C  0.10323692  0.27401433  0.46444568    -0.05500
H510        H  0.05690244  0.26739320  0.47359918     0.15200
C511        C  0.05985858  0.21946979  0.54331415    -0.15700
H512        H  0.10511573  0.22680617  0.53384810     0.09500
H513        H  0.18137231  0.21588385  0.46381326     0.07400
H514        H  0.17901947  0.20116736  0.49272083     0.08600
H515        H  0.20330189  0.22002068  0.48590460     0.07600
H516        H  0.11674089  0.28041473  0.54033790     0.02500
H517        H  0.11477111  0.29729978  0.51278174     0.03000
H518        H  0.13789745  0.30291960  0.53301022     0.06500
H519        H  0.09006486  0.28157459  0.45233190     0.05500
H520        H  0.11464091  0.26249296  0.45391428    -0.00300
H521        H  0.11398404  0.28843278  0.47116565     0.01200
H522        H  0.06522293  0.20110694  0.54200692     0.04800
H523        H  0.04058035  0.21994835  0.54467298     0.06800
H524        H  0.06659103  0.22639215  0.56013868     0.07700
C525        C  0.06758786  0.24295724  0.28012241    -0.22000
C526        C  0.08026336  0.26259975  0.27166831     0.10000
C527        C  0.06821681  0.28267199  0.26435208     0.10400
C528        C  0.04372153  0.28217397  0.26436098    -0.16900
C529        C  0.03097850  0.26214845  0.27170717    -0.27300
C530        C  0.04308030  0.24232144  0.27994435     0.18700
C531        C  0.10599537  0.26098186  0.26872083     0.12700
C532        C  0.08121174  0.30453374  0.25644245    -0.11700
H533        H  0.03441703  0.29730654  0.25794286     0.13000
C534        C  0.03102442  0.21970491  0.28700507    -0.22500
H535        H  0.07693891  0.22753350  0.28565052     0.08600
C536        C  0.12077659  0.26055659  0.28848919     0.05000
C537        C  0.14480203  0.25725461  0.28477537    -0.19700
C538        C  0.15441848  0.25474574  0.26174863    -0.12000
C539        C  0.13974384  0.25589180  0.24185848     0.13700
C540        C  0.11564540  0.25884120  0.24563509    -0.22400
C541        C  0.11125375  0.26383886  0.31340923    -0.05500
H542        H  0.15620017  0.25653166  0.29995704     0.15200
C543        C  0.14876120  0.25348113  0.21661887    -0.15700
H544        H  0.10421391  0.25912562  0.23047345     0.09500
H545        H  0.03355307  0.21584644  0.30629410     0.07400
H546        H  0.03868696  0.20550263  0.27655040     0.08600
H547        H  0.01210201  0.21970271  0.28353390     0.07600
H548        H  0.09228271  0.30133688  0.24041114     0.02500
H549        H  0.09245325  0.31033992  0.27105228     0.03000
H550        H  0.06908441  0.31879768  0.25186351     0.06500
H551        H  0.12532594  0.26358971  0.32672637     0.05500
H552        H  0.09857670  0.24974564  0.31845509    -0.00300
H553        H  0.10236056  0.28081189  0.31424372     0.01200
H554        H  0.14017430  0.23831893  0.20859190     0.04800
H555        H  0.16790685  0.25098061  0.21547931     0.06800
H556        H  0.14459727  0.26935913  0.20592576     0.07700
C557        C  0.96952502  0.25255774  0.39720491    -0.22000
C558        C  0.98962088  0.24467719  0.38540688     0.10000
C559        C  0.00790631  0.23514104  0.39884112     0.10400
C560        C  0.00560321  0.23364173  0.42388951    -0.16900
C561        C  0.98562208  0.24188839  0.43575236    -0.27300
C562        C  0.96724137  0.25126883  0.42219296     0.18700
C563        C  0.99099624  0.24696264  0.35896710     0.12700
C564        C  0.02991384  0.22692260  0.38674596    -0.11700
H565        H  0.01973658  0.22661820  0.43431393     0.13000
C566        C  0.94477845  0.25958568  0.43336539    -0.22500
H567        H  0.95547031  0.25976891  0.38678680     0.08600
C568        C  0.98127884  0.22995605  0.34446356     0.05000
C569        C  0.98073599  0.23402745  0.31966320    -0.19700
C570        C  0.98970540  0.25469461  0.30897939    -0.12000
C571        C  0.99959582  0.27167553  0.32358873     0.13700
C572        C  0.00036684  0.26742925  0.34835734    -0.22400
C573        C  0.97130077  0.20763646  0.35521150    -0.05500
H574        H  0.97320395  0.22106709  0.30844677     0.15200
C575        C  0.00817926  0.29498710  0.31398993    -0.15700
H576        H  0.00751222  0.28059547  0.35961432     0.09500
H577        H  0.92982430  0.24991579  0.42601140     0.07400
H578        H  0.94272628  0.27836054  0.42907011     0.08600
H579        H  0.94391267  0.25695285  0.45302148     0.07600
H580        H  0.03847738  0.24158002  0.37650511     0.02500
H581        H  0.02566361  0.21293441  0.37433295     0.03000
H582        H  0.04252982  0.22001418  0.39985307     0.06500
H583        H  0.96444046  0.19618660  0.34134568     0.05500
H584        H  0.95674215  0.21142290  0.36785613    -0.00300
H585        H  0.98507559  0.19811424  0.36492433     0.01200
H586        H  0.99902294  0.30890521  0.32360711     0.04800
H587        H  0.00481923  0.29786635  0.29478731     0.06800
H588        H  0.02723754  0.29670926  0.31682794     0.07700
C589        C  0.98686752  0.25543553  0.67078516    -0.22000
C590        C  0.99322616  0.23734225  0.65586403     0.10000
C591        C  0.00277220  0.21694847  0.66595326     0.10400
C592        C  0.00393394  0.21435070  0.69084198    -0.16900
C593        C  0.99689199  0.23208302  0.70596215    -0.27300
C594        C  0.98927598  0.25332292  0.69568351     0.18700
C595        C  0.99033133  0.24010498  0.62967314     0.12700
C596        C  0.01229597  0.19817207  0.65046040    -0.11700
H597        H  0.01030263  0.19829011  0.69865625     0.13000
C598        C  0.98480461  0.27436684  0.71021598    -0.22500
H599        H  0.98045259  0.27146847  0.66290932     0.08600
C600        C  0.97179182  0.22905343  0.61809787     0.05000
C601        C  0.97119816  0.22996696  0.59303690    -0.19700
C602        C  0.98809310  0.24258786  0.57937300    -0.12000
C603        C  0.00585406  0.25482019  0.59106553     0.13700
C604        C  0.00693366  0.25315858  0.61609754    -0.22400
C605        C  0.95238405  0.21676096  0.63222568    -0.05500
H606        H  0.95729410  0.22107362  0.58405015     0.15200
C607        C  0.02407956  0.26905869  0.57720863    -0.15700
H608        H  0.02095506  0.26180914  0.62513611     0.09500
H609        H  0.96605982  0.27897140  0.70945033     0.07400
H610        H  0.99551091  0.28918172  0.70280792     0.08600
H611        H  0.98972497  0.27172553  0.72908252     0.07600
H612        H  0.02650330  0.20548376  0.63859144     0.02500
H613        H  0.99837848  0.19097496  0.63932751     0.03000
H614        H  0.01959714  0.18364964  0.66128904     0.06500
H615        H  0.93903091  0.20946764  0.62040347     0.05500
H616        H  0.94363290  0.22920779  0.64411467    -0.00300
H617        H  0.95936262  0.20230566  0.64330560     0.01200
H618        H  0.01565336  0.28357061  0.56736932     0.04800
H619        H  0.03343190  0.25805668  0.56432301     0.06800
H620        H  0.03718735  0.27664751  0.58911637     0.07700
C621        C  0.82454139  0.24022260  0.51407253    -0.22000
C622        C  0.84134747  0.22597116  0.52464828     0.10000
C623        C  0.83399640  0.20728583  0.53993363     0.10400
C624        C  0.81004472  0.20242970  0.54313640    -0.16900
C625        C  0.79310328  0.21627036  0.53216017    -0.27300
C626        C  0.80049858  0.23595596  0.51811244     0.18700
C627        C  0.86658716  0.23073004  0.51957334     0.12700
C628        C  0.85144593  0.19248248  0.55288806    -0.11700
H629        H  0.80444753  0.18743855  0.55395993     0.13000
C630        C  0.78366396  0.25318511  0.50783758    -0.22500
H631        H  0.83023024  0.25493590  0.50282815     0.08600
C632        C  0.87889558  0.21909505  0.50150278     0.05000
C633        C  0.90315649  0.22262405  0.49861129    -0.19700
C634        C  0.91537264  0.23785673  0.51308793    -0.12000
C635        C  0.90288317  0.24989072  0.53087220     0.13700
C636        C  0.87863712  0.24616133  0.53387380    -0.22400
C637        C  0.86639019  0.20288319  0.48536378    -0.05500
H638        H  0.91267648  0.21339809  0.48500011     0.15200
C639        C  0.91517390  0.26577029  0.54751269    -0.15700
H640        H  0.86908015  0.25490649  0.54780728     0.09500
H641        H  0.78494317  0.25326410  0.48804020     0.07400
H642        H  0.78808980  0.27078651  0.51398149     0.08600
H643        H  0.76537326  0.24940811  0.51356554     0.07600
H644        H  0.86211161  0.20348886  0.56448551     0.02500
H645        H  0.86313874  0.18394031  0.53987542     0.03000
H646        H  0.84273165  0.17875797  0.56435043     0.06500
H647        H  0.87853786  0.19530068  0.47207550     0.05500
H648        H  0.85272965  0.21247654  0.47553234    -0.00300
H649        H  0.85801750  0.18842807  0.49604976     0.01200
H650        H  0.92322642  0.28066243  0.53723891     0.04800
H651        H  0.92892565  0.25610418  0.55714364     0.06800
H652        H  0.90292168  0.27284993  0.56102136     0.07700
C653        C  0.42079995  0.23176837  0.29951486    -0.22000
C654        C  0.40945834  0.22972084  0.27779429     0.10000
C655        C  0.42260147  0.22394126  0.25721251     0.10400
C656        C  0.44703732  0.22182352  0.25850260    -0.16900
C657        C  0.45860048  0.22573622  0.27984470    -0.27300
C658        C  0.44515999  0.22971864  0.30082032     0.18700
C659        C  0.38435317  0.23600997  0.27647232     0.12700
C660        C  0.41092505  0.22114533  0.23366315    -0.11700
H661        H  0.45729666  0.21904626  0.24237302     0.13000
C662        C  0.45615857  0.23262716  0.32472233    -0.22500
H663        H  0.41069262  0.23591562  0.31537743     0.08600
C664        C  0.36617047  0.21970151  0.28103783     0.05000
C665        C  0.34280543  0.22650499  0.27836666    -0.19700
C666        C  0.33703250  0.24945003  0.27162047    -0.12000
C667        C  0.35551421  0.26603247  0.26803739     0.13700
C668        C  0.37880690  0.25898319  0.27039103    -0.22400
C669        C  0.37149064  0.19511965  0.28865272    -0.05500
H670        H  0.32896291  0.21375049  0.28156835     0.15200
C671        C  0.35121694  0.29107631  0.26108002    -0.15700
H672        H  0.39293229  0.27145955  0.26722914     0.09500
H673        H  0.44828123  0.21984953  0.33785597     0.07400
H674        H  0.45292044  0.25040385  0.33100013     0.08600
H675        H  0.47526573  0.22969433  0.32414961     0.07600
H676        H  0.40232647  0.23756666  0.22822640     0.02500
H677        H  0.39757699  0.20704666  0.23534886     0.03000
H678        H  0.42365637  0.21668044  0.21933391     0.06500
H679        H  0.35531037  0.18450523  0.29154322     0.05500
H680        H  0.38110903  0.19503481  0.30562985    -0.00300
H681        H  0.38239995  0.18692378  0.27471073     0.01200
H682        H  0.34120818  0.29954480  0.27552199     0.04800
H683        H  0.34149994  0.29214838  0.24417604     0.06800
H684        H  0.36778403  0.30108328  0.25820037     0.07700
C685        C  0.51061789  0.16061809  0.24364522    -0.22000
C686        C  0.50578349  0.14579306  0.26352240     0.10000
C687        C  0.49812217  0.15543024  0.28518411     0.10400
C688        C  0.49619660  0.17963124  0.28666987    -0.16900
C689        C  0.50165332  0.19449179  0.26701746    -0.27300
C690        C  0.50831627  0.18480915  0.24504359     0.18700
C691        C  0.50894507  0.12027800  0.26145685     0.12700
C692        C  0.49187270  0.14017012  0.30671708    -0.11700
H693        H  0.49096127  0.18712792  0.30342454     0.13000
C694        C  0.51250713  0.19949266  0.22269065    -0.22500
H695        H  0.51614928  0.15325933  0.22690177     0.08600
C696        C  0.49287843  0.10633880  0.24937282     0.05000
C697        C  0.49609154  0.08219015  0.24892353    -0.19700
C698        C  0.51469038  0.07152522  0.26072521    -0.12000
C699        C  0.53101193  0.08555843  0.27250213     0.13700
C700        C  0.52798697  0.10972620  0.27255847    -0.22400
C701        C  0.47187096  0.11681854  0.23772617    -0.05500
H702        H  0.48348858  0.07144488  0.24007631     0.15200
C703        C  0.55198254  0.07578732  0.28488261    -0.15700
H704        H  0.54045136  0.12044246  0.28163948     0.09500
H705        H  0.50103482  0.19330479  0.20844059     0.07400
H706        H  0.53102089  0.19808890  0.21665111     0.08600
H707        H  0.50850210  0.21799260  0.22527506     0.07600
H708        H  0.50738728  0.13033070  0.31251457     0.02500
H709        H  0.47775139  0.12780131  0.30222798     0.03000
H710        H  0.48563624  0.15046120  0.32197722     0.06500
H711        H  0.46070229  0.10341219  0.22966928     0.05500
H712        H  0.47755796  0.12942607  0.22335448    -0.00300
H713        H  0.46114299  0.12586239  0.25123280     0.01200
H714        H  0.56812165  0.08397556  0.27695908     0.04800
H715        H  0.55358574  0.05678447  0.28325242     0.06800
H716        H  0.55089973  0.07970334  0.30414186     0.07700
C717        C  0.29615091  0.07921888  0.26917362    -0.22000
C718        C  0.28882705  0.09281184  0.24958760     0.10000
C719        C  0.28377727  0.08195482  0.22805323     0.10400
C720        C  0.28454159  0.05767426  0.22712095    -0.16900
C721        C  0.28985127  0.04387548  0.24730781    -0.27300
C722        C  0.29654467  0.05482769  0.26837760     0.18700
C723        C  0.28249322  0.11747833  0.25312700     0.12700
C724        C  0.27594771  0.09587190  0.20657373    -0.11700
H725        H  0.27920927  0.04927384  0.21104647     0.13000
C726        C  0.30242520  0.04096035  0.29056754    -0.22500
H727        H  0.29999804  0.08766043  0.28566758     0.08600
C728        C  0.26106050  0.12289556  0.26435455     0.05000
C729        C  0.25437479  0.14611855  0.26574600    -0.19700
C730        C  0.26834532  0.16451241  0.25598174    -0.12000
C731        C  0.29013619  0.15898028  0.24491935     0.13700
C732        C  0.29686922  0.13553538  0.24370286    -0.22400
C733        C  0.24477815  0.10405556  0.27429711    -0.05500
H734        H  0.23769807  0.14976935  0.27423509     0.15200
C735        C  0.30645249  0.17738942  0.23427676    -0.15700
H736        H  0.31325166  0.13118865  0.23497138     0.09500
H737        H  0.30543061  0.05229566  0.30589127     0.07400
H738        H  0.31868920  0.03123432  0.28739671     0.08600
H739        H  0.28792659  0.02871358  0.29563505     0.07600
H740        H  0.28984564  0.10852155  0.20077346     0.02500
H741        H  0.25976163  0.10536171  0.21111438     0.03000
H742        H  0.27222912  0.08465028  0.19132632     0.06500
H743        H  0.22844672  0.11124274  0.28197668     0.05500
H744        H  0.25344688  0.09397432  0.28868029    -0.00300
H745        H  0.23991549  0.09223826  0.25989663     0.01200
H746        H  0.32279694  0.16985878  0.22700264     0.04800
H747        H  0.31139075  0.18973785  0.24815466     0.06800
H748        H  0.29789325  0.18675918  0.21934582     0.07700
C749        C  0.35577582  0.98722116  0.27280296    -0.22000
C750        C  0.36970430  0.99890868  0.25535616     0.10000
C751        C  0.35911777  0.01096314  0.23628618     0.10400
C752        C  0.33468841  0.01094603  0.23504194    -0.16900
C753        C  0.32061908  0.99941060  0.25257812    -0.27300
C754        C  0.33133201  0.98780365  0.27199906     0.18700
C755        C  0.39533273  0.99926618  0.25800473     0.12700
C756        C  0.37362023  0.02388130  0.21734965    -0.11700
H757        H  0.32642405  0.01990143  0.22027685     0.13000
C758        C  0.31764531  0.97742686  0.29300830    -0.22500
H759        H  0.36404354  0.97840464  0.28767904     0.08600
C760        C  0.40652677  0.01692025  0.27055596     0.05000
C761        C  0.43097744  0.01718052  0.27178129    -0.19700
C762        C  0.44433704  0.00013249  0.26077635    -0.12000
C763        C  0.43302170  0.98183470  0.24917796     0.13700
C764        C  0.40858470  0.98173226  0.24777115    -0.22400
C765        C  0.39261740  0.03540848  0.28264291    -0.05500
H766        H  0.43972959  0.03090175  0.28105404     0.15200
C767        C  0.44658074  0.96196552  0.23910778    -0.15700
H768        H  0.39974432  0.96796576  0.23865134     0.09500
H769        H  0.32401803  0.98493458  0.30970486     0.07400
H770        H  0.32011202  0.95835788  0.29394021     0.08600
H771        H  0.29876296  0.98116703  0.29225864     0.07600
H772        H  0.38536583  0.01163891  0.20818567     0.02500
H773        H  0.38433050  0.03751208  0.22559468     0.03000
H774        H  0.36255120  0.03241202  0.20372689     0.06500
H775        H  0.40407814  0.04786073  0.29174391     0.05500
H776        H  0.38046884  0.02724237  0.29623302    -0.00300
H777        H  0.38235640  0.04527918  0.26929417     0.01200
H778        H  0.43484686  0.94858027  0.23182960     0.04800
H779        H  0.45695032  0.95354770  0.25338483     0.06800
H780        H  0.45849062  0.96833775  0.22440360     0.07700
C781        C  0.66256040  0.00023768  0.30542941    -0.22000
C782        C  0.65734463  0.99644392  0.28156424     0.10000
C783        C  0.67559220  0.99225625  0.26498831     0.10400
C784        C  0.69872125  0.99170790  0.27282362    -0.16900
C785        C  0.70385758  0.99464737  0.29692260    -0.27300
C786        C  0.68548965  0.99886712  0.31344479     0.18700
C787        C  0.63247051  0.99614923  0.27486792     0.12700
C788        C  0.67058190  0.98778639  0.23927891    -0.11700
H789        H  0.71284974  0.98875002  0.26019126     0.13000
C790        C  0.68922632  0.00094330  0.33979872    -0.22500
H791        H  0.64845552  0.00340502  0.31811215     0.08600
C792        C  0.61750225  0.97747769  0.28204340     0.05000
C793        C  0.59346567  0.97921473  0.27821593    -0.19700
C794        C  0.58414028  0.99901303  0.26705848    -0.12000
C795        C  0.59928438  0.01723208  0.25877337     0.13700
C796        C  0.62331206  0.01557576  0.26289491    -0.22400
C797        C  0.62690357  0.95575825  0.29375442    -0.05500
H798        H  0.58181273  0.96515149  0.28419351     0.15200
C799        C  0.59072229  0.03903530  0.24650867    -0.15700
H800        H  0.63488990  0.02986502  0.25741401     0.09500
H801        H  0.67788096  0.98811211  0.34983341     0.07400
H802        H  0.68455326  0.01865706  0.34531590     0.08600
H803        H  0.70737875  0.99745032  0.34499230     0.07600
H804        H  0.66203075  0.00310393  0.23099402     0.02500
H805        H  0.65883575  0.97241325  0.23823594     0.03000
H806        H  0.68681887  0.98437170  0.22881766     0.06500
H807        H  0.61289553  0.94259593  0.29756949     0.05500
H808        H  0.63505377  0.95988454  0.31090469    -0.00300
H809        H  0.64018713  0.94800799  0.28176433     0.01200
H810        H  0.59580300  0.05429262  0.25691628     0.04800
H811        H  0.57152508  0.03930199  0.24462575     0.06800
H812        H  0.59889727  0.04083345  0.22838902     0.07700
C813        C  0.51197391  0.84679789  0.29692536    -0.22000
C814        C  0.50243702  0.85726033  0.27653689     0.10000
C815        C  0.49157567  0.84327555  0.25967581     0.10400
C816        C  0.49182787  0.81900147  0.26285319    -0.16900
C817        C  0.50252585  0.80846157  0.28263578    -0.27300
C818        C  0.51161014  0.82262044  0.30048580     0.18700
C819        C  0.50420216  0.88288157  0.27323443     0.12700
C820        C  0.47978782  0.85400284  0.23837904    -0.11700
H821        H  0.48450570  0.80815849  0.24939760     0.13000
C822        C  0.52024980  0.81285866  0.32383392    -0.22500
H823        H  0.51961511  0.85761149  0.31025703     0.08600
C824        C  0.48937945  0.89773900  0.28593261     0.05000
C825        C  0.49241087  0.92186763  0.28301655    -0.19700
C826        C  0.50979422  0.93155764  0.26752022    -0.12000
C827        C  0.52449834  0.91661903  0.25458761     0.13700
C828        C  0.52154431  0.89244334  0.25768364    -0.22400
C829        C  0.47027144  0.88810660  0.30241885    -0.05500
H830        H  0.48102470  0.93327759  0.29281025     0.15200
C831        C  0.54388120  0.92599966  0.23828489    -0.15700
H832        H  0.53297173  0.88088513  0.24813200     0.09500
H833        H  0.51041488  0.82072644  0.33878405     0.07400
H834        H  0.53909951  0.81706797  0.32545914     0.08600
H835        H  0.51770092  0.79383054  0.32581248     0.07600
H836        H  0.49269774  0.86417158  0.22717498     0.02500
H837        H  0.46572744  0.86567528  0.24449572     0.03000
H838        H  0.47182156  0.84063179  0.22714795     0.06500
H839        H  0.45992901  0.90210910  0.31058004     0.05500
H840        H  0.47794134  0.87751001  0.31705091    -0.00300
H841        H  0.45821182  0.87707802  0.29229905     0.01200
H842        H  0.55441684  0.91186073  0.23063456     0.04800
H843        H  0.55575209  0.93725956  0.24837971     0.06800
H844        H  0.53647123  0.93616581  0.22320392     0.07700
C845        C  0.20059638  0.37250278  0.25881071    -0.22000
C846        C  0.20930667  0.38462022  0.23835366     0.10000
C847        C  0.22491467  0.37360771  0.22270843     0.10400
C848        C  0.23129772  0.35061261  0.22777570    -0.16900
C849        C  0.22321686  0.33848338  0.24863323    -0.27300
C850        C  0.20744754  0.34961510  0.26428067     0.18700
C851        C  0.20426211  0.40967815  0.23538922     0.12700
C852        C  0.23584218  0.38647755  0.20136056    -0.11700
H853        H  0.24336409  0.34230014  0.21565674     0.13000
C854        C  0.19875814  0.33809735  0.28733224    -0.22500
H855        H  0.18903045  0.38135733  0.27100412     0.08600
C856        C  0.18651375  0.41817430  0.22048417     0.05000
C857        C  0.18251663  0.44220644  0.21889556    -0.19700
C858        C  0.19547559  0.45764250  0.23238046    -0.12000
C859        C  0.21326108  0.44905758  0.24721789     0.13700
C860        C  0.21753926  0.42520262  0.24836153    -0.22400
C861        C  0.17124027  0.40186874  0.20709064    -0.05500
H862        H  0.16870062  0.44889424  0.20782245     0.15200
C863        C  0.22780401  0.46493708  0.26193238    -0.15700
H864        H  0.23114747  0.41850746  0.25970812     0.09500
H865        H  0.18752655  0.34980456  0.29784377     0.07400
H866        H  0.21379939  0.33314614  0.29847786     0.08600
H867        H  0.18820103  0.32243328  0.28354794     0.07600
H868        H  0.24585626  0.40175767  0.20733909     0.02500
H869        H  0.22218172  0.39247832  0.18901236     0.03000
H870        H  0.24802950  0.37536666  0.19124476     0.06500
H871        H  0.15795173  0.41136978  0.19663235     0.05500
H872        H  0.16197247  0.38972597  0.21991470    -0.00300
H873        H  0.18193137  0.39172384  0.19452021     0.01200
H874        H  0.24079503  0.45519560  0.27255582     0.04800
H875        H  0.21651489  0.47439459  0.27458828     0.06800
H876        H  0.23754367  0.47749075  0.25004431     0.07700
C877        C  0.20387826  0.49854996  0.14973825    -0.22000
C878        C  0.22648538  0.48976366  0.14750178     0.10000
C879        C  0.23873820  0.48334466  0.16817897     0.10400
C880        C  0.22813670  0.48628173  0.19076104    -0.16900
C881        C  0.20561897  0.49546261  0.19297537    -0.27300
C882        C  0.19317238  0.50119867  0.17216638     0.18700
C883        C  0.23676369  0.48817131  0.12311876     0.12700
C884        C  0.26294811  0.47360135  0.16636682    -0.11700
H885        H  0.23749909  0.48167952  0.20673048     0.13000
C886        C  0.16834467  0.50952839  0.17292865    -0.22500
H887        H  0.19442644  0.50322256  0.13378096     0.08600
C888        C  0.23220935  0.46890336  0.10895683     0.05000
C889        C  0.23820731  0.47017142  0.08451763    -0.19700
C890        C  0.24848708  0.49031412  0.07393400    -0.12000
C891        C  0.25402473  0.50920348  0.08839277     0.13700
C892        C  0.24821490  0.50778161  0.11287051    -0.22400
C893        C  0.22013811  0.44744809  0.11942198    -0.05500
H894        H  0.23389659  0.45576324  0.07336322     0.15200
C895        C  0.26448027  0.53169742  0.07848150    -0.15700
H896        H  0.25142868  0.52263321  0.12379681     0.09500
H897        H  0.15724519  0.49779704  0.16252264     0.07400
H898        H  0.16761552  0.52731325  0.16484542     0.08600
H899        H  0.16070445  0.50974634  0.19123218     0.07600
H900        H  0.27483464  0.48639305  0.15699484     0.02500
H901        H  0.26261986  0.45737367  0.15623851     0.03000
H902        H  0.27007393  0.46953426  0.18425485     0.06500
H903        H  0.21787612  0.43400741  0.10585740     0.05500
H904        H  0.20259024  0.45191090  0.12660630    -0.00300
H905        H  0.23061227  0.43989453  0.13407364     0.01200
H906        H  0.25233520  0.54610144  0.08214426     0.04800
H907        H  0.26792788  0.53172859  0.05897930     0.06800
H908        H  0.28127135  0.53517574  0.08730187     0.07700
C909        C  0.26366966  0.28274736  0.09772424    -0.22000
C910        C  0.28357074  0.27902002  0.11140020     0.10000
C911        C  0.30527273  0.27521026  0.09989230     0.10400
C912        C  0.30615295  0.27291778  0.07513857    -0.16900
C913        C  0.28602006  0.27510078  0.06152808    -0.27300
C914        C  0.26459046  0.28078978  0.07281503     0.18700
C915        C  0.28094362  0.27606166  0.13763384     0.12700
C916        C  0.32744274  0.27319945  0.11376105    -0.11700
H917        H  0.32251976  0.26848702  0.06640892     0.13000
C918        C  0.24212495  0.28328245  0.05954623    -0.22500
H919        H  0.24703326  0.28574491  0.10665421     0.08600
C920        C  0.27701510  0.29490034  0.15251437     0.05000
C921        C  0.27572951  0.29089471  0.17730855    -0.19700
C922        C  0.27845052  0.26849789  0.18763085    -0.12000
C923        C  0.28226721  0.24962269  0.17254206     0.13700
C924        C  0.28317585  0.25366588  0.14774123    -0.22400
C925        C  0.27472032  0.31922164  0.14231888    -0.05500
H926        H  0.27256284  0.30542782  0.18871739     0.15200
C927        C  0.28640675  0.22541622  0.18229045    -0.15700
H928        H  0.28613770  0.23930206  0.13605075     0.09500
H929        H  0.23560005  0.30122686  0.06124407     0.07400
H930        H  0.22882993  0.27091347  0.06733874     0.08600
H931        H  0.24404131  0.27968275  0.04034138     0.07600
H932        H  0.32642581  0.25800307  0.12635334     0.02500
H933        H  0.33014421  0.28919526  0.12393463     0.03000
H934        H  0.34294182  0.27101354  0.10180536     0.06500
H935        H  0.27224096  0.33200536  0.15656012     0.05500
H936        H  0.25942040  0.32021631  0.13055759    -0.00300
H937        H  0.29076137  0.32420222  0.13180302     0.01200
H938        H  0.29070113  0.21326998  0.16787344     0.04800
H939        H  0.30129576  0.22560136  0.19463575     0.06800
H940        H  0.27048961  0.21856624  0.19184610     0.07700
C941        C  0.28871612  0.34498592  0.02211155    -0.22000
C942        C  0.26878443  0.35214845  0.01002078     0.10000
C943        C  0.25445143  0.33543863  0.99945770     0.10400
C944        C  0.25977627  0.31181319  0.00226527    -0.16900
C945        C  0.27971647  0.30453631  0.01440808    -0.27300
C946        C  0.29476323  0.32148801  0.02380592     0.18700
C947        C  0.26413706  0.37735303  0.00737803     0.12700
C948        C  0.23402014  0.34257456  0.98457782    -0.11700
H949        H  0.24844201  0.29889828  0.99477459     0.13000
C950        C  0.31801624  0.31567491  0.03429555    -0.22500
H951        H  0.30012226  0.35793899  0.02950013     0.08600
C952        C  0.24806399  0.38851576  0.02249858     0.05000
C953        C  0.24430078  0.41243588  0.01913366    -0.19700
C954        C  0.25676322  0.42558723  0.00147628    -0.12000
C955        C  0.27293029  0.41428893  0.98634290     0.13700
C956        C  0.27642100  0.39035045  0.98958465    -0.22400
C957        C  0.23562822  0.37539063  0.04277348    -0.05500
H958        H  0.23228499  0.42111626  0.03101777     0.15200
C959        C  0.28640610  0.42664900  0.96622644    -0.15700
H960        H  0.28878122  0.38169102  0.97803776     0.09500
H961        H  0.31784033  0.31978381  0.05351934     0.07400
H962        H  0.33196646  0.32619147  0.02491369     0.08600
H963        H  0.32271375  0.29728102  0.03224483     0.07600
H964        H  0.24026460  0.35391230  0.96933033     0.02500
H965        H  0.22119183  0.35218821  0.99544977     0.03000
H966        H  0.22491259  0.32733009  0.97727343     0.06500
H967        H  0.22400074  0.38683063  0.05315918     0.05500
H968        H  0.24865208  0.36788620  0.05508583    -0.00300
H969        H  0.22479049  0.36115078  0.03585626     0.01200
H970        H  0.30538962  0.42599067  0.96976538     0.04800
H971        H  0.28139215  0.44498901  0.96355584     0.06800
H972        H  0.28307851  0.41788658  0.94924330     0.07700
C973        C  0.26436208  0.49974124  0.83836992    -0.22000
C974        C  0.24582795  0.49251160  0.85376725     0.10000
C975        C  0.22561019  0.48255813  0.84406377     0.10400
C976        C  0.22442625  0.48015731  0.81926904    -0.16900
C977        C  0.24307589  0.48701091  0.80393501    -0.27300
C978        C  0.26336316  0.49680801  0.81361700     0.18700
C979        C  0.24819115  0.49481804  0.88000066     0.12700
C980        C  0.20539166  0.47417254  0.85982622    -0.11700
H981        H  0.20865198  0.47333816  0.81168440     0.13000
C982        C  0.28434421  0.50390777  0.79836696    -0.22500
H983        H  0.27987452  0.50740656  0.84576667     0.08600
C984        C  0.26336069  0.48049873  0.89324803     0.05000
C985        C  0.26431774  0.48258239  0.91811661    -0.19700
C986        C  0.24992600  0.49808480  0.93022072    -0.12000
C987        C  0.23487458  0.51260398  0.91694534     0.13700
C988        C  0.23446637  0.51101129  0.89195825    -0.22400
C989        C  0.27788108  0.46236910  0.88131241    -0.05500
H990        H  0.27573239  0.47139187  0.92828942     0.15200
C991        C  0.21948952  0.53001961  0.92894802    -0.15700
H992        H  0.22304775  0.52213917  0.88169447     0.09500
H993        H  0.29996816  0.49470428  0.80494568     0.07400
H994        H  0.28736834  0.52289553  0.79945055     0.08600
H995        H  0.28235907  0.49959149  0.77939204     0.07600
H996        H  0.19767154  0.48892389  0.86935341     0.02500
H997        H  0.21150698  0.46100389  0.87304876     0.03000
H998        H  0.19139211  0.46609379  0.84935367     0.06500
H999        H  0.28804080  0.45205856  0.89442855     0.05500
H1000       H  0.29044469  0.47075083  0.86830154    -0.00300
H1001       H  0.26633073  0.45025519  0.87187527     0.01200
H1002       H  0.20976158  0.54067449  0.91575771     0.04800
H1003       H  0.23030655  0.54190886  0.93944547     0.06800
H1004       H  0.20644521  0.52097901  0.94096048     0.07700
C1005       C  0.22500788  0.65134008  0.99506266    -0.22000
C1006       C  0.24462213  0.63987422  0.00387264     0.10000
C1007       C  0.26408489  0.65311157  0.01086405     0.10400
C1008       C  0.26361700  0.67747008  0.00843841    -0.16900
C1009       C  0.24423864  0.68893614  0.99896226    -0.27300
C1010       C  0.22440270  0.67567023  0.99289995     0.18700
C1011       C  0.24483576  0.61401887  0.00430860     0.12700
C1012       C  0.28531213  0.64152053  0.02087242    -0.11700
H1013       H  0.27862588  0.68768193  0.01345161     0.13000
C1014       C  0.20201815  0.68657864  0.98496313    -0.22500
H1015       H  0.20998188  0.64120067  0.98990900     0.08600
C1016       C  0.23252304  0.60038216  0.02192086     0.05000
C1017       C  0.23283268  0.57597288  0.02084198    -0.19700
C1018       C  0.24532884  0.56492905  0.00262766    -0.12000
C1019       C  0.25736108  0.57872632  0.98483298     0.13700
C1020       C  0.25705766  0.60299286  0.98604151    -0.22400
C1021       C  0.21952416  0.61160377  0.04207437    -0.05500
H1022       H  0.22375982  0.56546636  0.03456546     0.15200
C1023       C  0.27010700  0.56862271  0.96379356    -0.15700
H1024       H  0.26620150  0.61348134  0.97233943     0.09500
H1025       H  0.18736576  0.68013989  0.99677616     0.07400
H1026       H  0.19851015  0.68174675  0.96635054     0.08600
H1027       H  0.20231701  0.70571700  0.98588472     0.07600
H1028       H  0.29320424  0.63006240  0.00741902     0.02500
H1029       H  0.28023070  0.63099210  0.03711547     0.03000
H1030       H  0.29880062  0.65439326  0.02582163     0.06500
H1031       H  0.21121608  0.59850132  0.05458675     0.05500
H1032       H  0.20559681  0.62285437  0.03485796    -0.00300
H1033       H  0.23181384  0.62230903  0.05227527     0.01200
H1034       H  0.26817184  0.54956230  0.96291745     0.04800
H1035       H  0.26309391  0.57613940  0.94698860     0.06800
H1036       H  0.28899127  0.57304279  0.96452775     0.07700
C1037       C  0.07787536  0.19923203  0.73896769    -0.22000
C1038       C  0.08894561  0.22079130  0.73501539     0.10000
C1039       C  0.07575045  0.24033896  0.72830050     0.10400
C1040       C  0.05132521  0.23835633  0.72810597    -0.16900
C1041       C  0.04011999  0.21731176  0.73470125    -0.27300
C1042       C  0.05353553  0.19721023  0.73868405     0.18700
C1043       C  0.11384500  0.22305109  0.74074465     0.12700
C1044       C  0.08737011  0.26350721  0.72281736    -0.11700
H1045       H  0.04095563  0.25371035  0.72495451     0.13000
C1046       C  0.04259400  0.17360500  0.74351463    -0.22500
H1047       H  0.08820260  0.18415908  0.74352231     0.08600
C1048       C  0.12071339  0.22602648  0.76448434     0.05000
C1049       C  0.14440677  0.22927768  0.76918326    -0.19700
C1050       C  0.16139248  0.22909093  0.75077516    -0.12000
C1051       C  0.15448691  0.22537385  0.72706713     0.13700
C1052       C  0.13068897  0.22258032  0.72233578    -0.22400
C1053       C  0.10301051  0.22599357  0.78480499    -0.05500
H1054       H  0.14973505  0.23189467  0.78735153     0.15200
C1055       C  0.17191524  0.22508904  0.70659075    -0.15700
H1056       H  0.12512944  0.22017557  0.70421230     0.09500
H1057       H  0.04680850  0.16731587  0.76181172     0.07400
H1058       H  0.04967123  0.16126695  0.73043851     0.08600
H1059       H  0.02334096  0.17366328  0.74177796     0.07600
H1060       H  0.09981092  0.26201947  0.70747850     0.02500
H1061       H  0.09700701  0.26924803  0.73859902     0.03000
H1062       H  0.07445674  0.27702036  0.71810971     0.06500
H1063       H  0.11137433  0.22872697  0.80219770     0.05500
H1064       H  0.09356863  0.20906567  0.78602881    -0.00300
H1065       H  0.09027264  0.24008470  0.78178177     0.01200
H1066       H  0.18386593  0.21025308  0.70907071     0.04800
H1067       H  0.18207401  0.24161462  0.70562459     0.06800
H1068       H  0.16328015  0.22309251  0.68921563     0.07700
C1069       C  0.21727505  0.23481279  0.58185708    -0.22000
C1070       C  0.21038320  0.25274624  0.59673329     0.10000
C1071       C  0.20196558  0.27359345  0.58633010     0.10400
C1072       C  0.20300231  0.27687135  0.56137674    -0.16900
C1073       C  0.21140371  0.25945957  0.54665650    -0.27300
C1074       C  0.21754132  0.23777313  0.55695151     0.18700
C1075       C  0.21605108  0.25066641  0.62247342     0.12700
C1076       C  0.19216835  0.29246131  0.60149533    -0.11700
H1077       H  0.19836762  0.29350078  0.55344127     0.13000
C1078       C  0.22563360  0.21780786  0.54224873    -0.22500
H1079       H  0.22384855  0.21883728  0.58971060     0.08600
C1080       C  0.20621621  0.23324570  0.63800184     0.05000
C1081       C  0.21535995  0.22985830  0.66093465    -0.19700
C1082       C  0.23365397  0.24390258  0.66894786    -0.12000
C1083       C  0.24216569  0.26248940  0.65393700     0.13700
C1084       C  0.23368225  0.26519394  0.63078313    -0.22400
C1085       C  0.18588321  0.21853650  0.63057861    -0.05500
H1086       H  0.20854292  0.21584008  0.67243702     0.15200
C1087       C  0.25972030  0.28001101  0.66227560    -0.15700
H1088       H  0.24125630  0.27851052  0.61882266     0.09500
H1089       H  0.21403012  0.20252674  0.54609211     0.07400
H1090       H  0.24376759  0.21324156  0.54696702     0.08600
H1091       H  0.22534572  0.22169278  0.52279777     0.07600
H1092       H  0.20575801  0.29954457  0.61309907     0.02500
H1093       H  0.17746309  0.28531634  0.61280480     0.03000
H1094       H  0.18545207  0.30708290  0.59038041     0.06500
H1095       H  0.17968777  0.20647846  0.64526718     0.05500
H1096       H  0.19091563  0.20797994  0.61513382    -0.00300
H1097       H  0.17114129  0.22990016  0.62558473     0.01200
H1098       H  0.26262681  0.29445384  0.64893680     0.04800
H1099       H  0.27683981  0.27172365  0.66514984     0.06800
H1100       H  0.25326661  0.28764325  0.67910588     0.07700
C1101       C  0.26287142  0.35383142  0.79240294    -0.22000
C1102       C  0.24816508  0.36672960  0.77756052     0.10000
C1103       C  0.23362810  0.35489531  0.76178805     0.10400
C1104       C  0.23317902  0.33047566  0.76216714    -0.16900
C1105       C  0.24744702  0.31738228  0.77740529    -0.27300
C1106       C  0.26267449  0.32937194  0.79270733     0.18700
C1107       C  0.24819092  0.39259491  0.77856472     0.12700
C1108       C  0.21890552  0.36805893  0.74415975    -0.11700
H1109       H  0.22163010  0.32150059  0.75037554     0.13000
C1110       C  0.27818979  0.31734882  0.81049771    -0.22500
H1111       H  0.27420692  0.36293231  0.80431608     0.08600
C1112       C  0.23022432  0.40455451  0.79056560     0.05000
C1113       C  0.22879288  0.42886633  0.78765555    -0.19700
C1114       C  0.24550845  0.44165378  0.77388019    -0.12000
C1115       C  0.26478371  0.42977114  0.76389680     0.13700
C1116       C  0.26571848  0.40543547  0.76610892    -0.22400
C1117       C  0.21244310  0.39161508  0.80625458    -0.05500
H1118       H  0.21384004  0.43763816  0.79506249     0.15200
C1119       C  0.28444331  0.44223888  0.75032707    -0.15700
H1120       H  0.27989181  0.39636471  0.75744623     0.09500
H1121       H  0.27395860  0.32342129  0.82868686     0.07400
H1122       H  0.29674267  0.32174236  0.80605204     0.08600
H1123       H  0.27624508  0.29829914  0.81124456     0.07600
H1124       H  0.23034344  0.37921031  0.73225025     0.02500
H1125       H  0.20625349  0.37914348  0.75361540     0.03000
H1126       H  0.20887981  0.35619013  0.73285762     0.06500
H1127       H  0.19973785  0.40356353  0.81449922     0.05500
H1128       H  0.22148045  0.38213430  0.82082568    -0.00300
H1129       H  0.20255291  0.37897327  0.79578111     0.01200
H1130       H  0.30129790  0.43781061  0.75863970     0.04800
H1131       H  0.28285151  0.46137333  0.75042138     0.06800
H1132       H  0.28490341  0.43669919  0.73152913     0.07700
C1133       C  0.28524326  0.25105472  0.88598394    -0.22000
C1134       C  0.27279835  0.26847441  0.89747167     0.10000
C1135       C  0.25711269  0.28227119  0.88458101     0.10400
C1136       C  0.25302133  0.27733365  0.86076440    -0.16900
C1137       C  0.26426237  0.25889753  0.84943830    -0.27300
C1138       C  0.28134168  0.24615267  0.86198104     0.18700
C1139       C  0.27449539  0.27011493  0.92358337     0.12700
C1140       C  0.24437818  0.30188812  0.89611143    -0.11700
H1141       H  0.24058047  0.28777138  0.85103707     0.13000
C1142       C  0.29481052  0.22686551  0.85070838    -0.22500
H1143       H  0.29741858  0.24069821  0.89615780     0.08600
C1144       C  0.25922008  0.25702590  0.93892856     0.05000
C1145       C  0.26263876  0.25707444  0.96352512    -0.19700
C1146       C  0.28116896  0.26957764  0.97311406    -0.12000
C1147       C  0.29596673  0.28342176  0.95780461     0.13700
C1148       C  0.29224342  0.28369581  0.93311733    -0.22400
C1149       C  0.23985453  0.24231508  0.92928834    -0.05500
H1150       H  0.25135400  0.24649172  0.97534667     0.15200
C1151       C  0.31651399  0.29698402  0.96658393    -0.15700
H1152       H  0.30384603  0.29376335  0.92115346     0.09500
H1153       H  0.30676547  0.21835730  0.86351711     0.07400
H1154       H  0.30565672  0.23390560  0.83543608     0.08600
H1155       H  0.28255249  0.21342077  0.84444580     0.07600
H1156       H  0.25722868  0.31467520  0.90257314     0.02500
H1157       H  0.23345005  0.29517423  0.91145195     0.03000
H1158       H  0.23278407  0.31103092  0.88339740     0.06500
H1159       H  0.22969308  0.23301603  0.94380939     0.05500
H1160       H  0.24731059  0.22917377  0.91731970    -0.00300
H1161       H  0.22761591  0.25337264  0.91910274     0.01200
H1162       H  0.33272099  0.29141338  0.95726405     0.04800
H1163       H  0.31912822  0.29443086  0.98596184     0.06800
H1164       H  0.31394671  0.31576256  0.96269204     0.07700
C1165       C  0.41594483  0.20727252  0.74375086    -0.22000
C1166       C  0.40852890  0.21336920  0.76671584     0.10000
C1167       C  0.42484630  0.21533426  0.78495166     0.10400
C1168       C  0.44864606  0.21354147  0.77919160    -0.16900
C1169       C  0.45620860  0.20992408  0.75564856    -0.27300
C1170       C  0.43977822  0.20563455  0.73793482     0.18700
C1171       C  0.38434174  0.22123267  0.77006363     0.12700
C1172       C  0.41719751  0.22076848  0.81001627    -0.11700
H1173       H  0.46147634  0.21671284  0.79267897     0.13000
C1174       C  0.44735265  0.20098887  0.71264326    -0.22500
H1175       H  0.40313197  0.20553149  0.72995511     0.08600
C1176       C  0.37804315  0.24387664  0.76258022     0.05000
C1177       C  0.35444426  0.24993207  0.76293265    -0.19700
C1178       C  0.33725964  0.23381329  0.77062642    -0.12000
C1179       C  0.34377358  0.21190662  0.78017230     0.13700
C1180       C  0.36736021  0.20577644  0.77962795    -0.22400
C1181       C  0.39616251  0.26134139  0.75346787    -0.05500
H1182       H  0.34927345  0.26665744  0.75558908     0.15200
C1183       C  0.32615847  0.19454372  0.79053597    -0.15700
H1184       H  0.37242794  0.18864606  0.78594070     0.09500
H1185       H  0.43216030  0.19891964  0.70089399     0.07400
H1186       H  0.45746614  0.18473227  0.71226682     0.08600
H1187       H  0.45836283  0.21558914  0.70525967     0.07600
H1188       H  0.40517875  0.20688812  0.81721833     0.02500
H1189       H  0.40801974  0.23761812  0.81005459     0.03000
H1190       H  0.43227471  0.22191851  0.82205768     0.06500
H1191       H  0.38823250  0.27826818  0.74859977     0.05500
H1192       H  0.40525585  0.25485716  0.73734637    -0.00300
H1193       H  0.40914039  0.26431636  0.76750212     0.01200
H1194       H  0.32657036  0.17851800  0.78006455     0.04800
H1195       H  0.30809010  0.20127316  0.79068218     0.06800
H1196       H  0.33059503  0.19009937  0.80929377     0.07700
C1197       C  0.50901208  0.08930991  0.75078966    -0.22000
C1198       C  0.49217512  0.10242214  0.73891848     0.10000
C1199       C  0.47565339  0.09119124  0.72476700     0.10400
C1200       C  0.47613333  0.06694751  0.72321840    -0.16900
C1201       C  0.49280170  0.05376615  0.73539105    -0.27300
C1202       C  0.50979522  0.06515805  0.74896373     0.18700
C1203       C  0.49305093  0.12799044  0.74064565     0.12700
C1204       C  0.45732824  0.10470403  0.71162529    -0.11700
H1205       H  0.46325111  0.05819104  0.71270877     0.13000
C1206       C  0.52969902  0.05273686  0.76079316    -0.22500
H1207       H  0.52205811  0.09809685  0.76108047     0.08600
C1208       C  0.48629935  0.13913459  0.76175936     0.05000
C1209       C  0.48801654  0.16340520  0.76250215    -0.19700
C1210       C  0.49619003  0.17670165  0.74260800    -0.12000
C1211       C  0.50255149  0.16549779  0.72137040     0.13700
C1212       C  0.50132152  0.14126518  0.72082995    -0.22400
C1213       C  0.47708126  0.12547928  0.78335760    -0.05500
H1214       H  0.48318175  0.17211382  0.77870338     0.15200
C1215       C  0.50972062  0.17856427  0.69867439    -0.15700
H1216       H  0.50650938  0.13264244  0.70465732     0.09500
H1217       H  0.52814844  0.05446823  0.78043241     0.07400
H1218       H  0.54652683  0.06071471  0.75437831     0.08600
H1219       H  0.53054392  0.03409799  0.75678795     0.07600
H1220       H  0.46574604  0.11688507  0.69826599     0.02500
H1221       H  0.44671317  0.11467117  0.72447975     0.03000
H1222       H  0.44538009  0.09312077  0.70199835     0.06500
H1223       H  0.47207766  0.13698658  0.79811322     0.05500
H1224       H  0.49063866  0.11348376  0.79001675    -0.00300
H1225       H  0.46138967  0.11529791  0.77856660     0.01200
H1226       H  0.49837834  0.17311920  0.68399277     0.04800
H1227       H  0.52814814  0.17461688  0.69393246     0.06800
H1228       H  0.50790042  0.19755076  0.69997018     0.07700
C1229       C  0.28356502  0.12913566  0.73465284    -0.22000
C1230       C  0.26412742  0.11615924  0.74297885     0.10000
C1231       C  0.24366504  0.12782123  0.74998161     0.10400
C1232       C  0.24280378  0.15219645  0.74753790    -0.16900
C1233       C  0.26198407  0.16539937  0.73826800    -0.27300
C1234       C  0.28294505  0.15347819  0.73230972     0.18700
C1235       C  0.26517483  0.09033614  0.74274592     0.12700
C1236       C  0.22259067  0.11446372  0.75965262    -0.11700
H1237       H  0.22685870  0.16091593  0.75256994     0.13000
C1238       C  0.30506082  0.16593895  0.72381724    -0.22500
H1239       H  0.29928267  0.12002055  0.72958809     0.08600
C1240       C  0.26198162  0.07835929  0.72142168     0.05000
C1241       C  0.26188276  0.05396682  0.72198448    -0.19700
C1242       C  0.26468557  0.04119762  0.74339993    -0.12000
C1243       C  0.26824256  0.05315453  0.76467238     0.13700
C1244       C  0.26878099  0.07760496  0.76406224    -0.22400
C1245       C  0.25757336  0.09134157  0.69826817    -0.05500
H1246       H  0.25833724  0.04477185  0.70585274     0.15200
C1247       C  0.27033057  0.04009350  0.78816727    -0.15700
H1248       H  0.27121343  0.08683937  0.78038868     0.09500
H1249       H  0.30242153  0.17466181  0.70619132     0.07400
H1250       H  0.31983840  0.15383068  0.72156279     0.08600
H1251       H  0.31031492  0.17878889  0.73707990     0.07600
H1252       H  0.22717870  0.10460766  0.77617168     0.02500
H1253       H  0.21652404  0.10215843  0.74619117     0.03000
H1254       H  0.20792387  0.12612611  0.76408709     0.06500
H1255       H  0.25482817  0.07936975  0.68341242     0.05500
H1256       H  0.27276214  0.10277458  0.69337411    -0.00300
H1257       H  0.24171273  0.10207995  0.70022593     0.01200
H1258       H  0.28567385  0.02856150  0.78738933     0.04800
H1259       H  0.27264505  0.05201127  0.80314773     0.06800
H1260       H  0.25431001  0.02946687  0.79198580     0.07700
C1261       C  0.33413144  0.98436539  0.75929715    -0.22000
C1262       C  0.34611602  0.99278919  0.73867898     0.10000
C1263       C  0.33342083  0.00380039  0.72028474     0.10400
C1264       C  0.30901195  0.00589351  0.72290835    -0.16900
C1265       C  0.29705302  0.99730631  0.74351432    -0.27300
C1266       C  0.30989922  0.98686966  0.76213574     0.18700
C1267       C  0.37200781  0.99045395  0.73722608     0.12700
C1268       C  0.34562954  0.01345372  0.69801329    -0.11700
H1269       H  0.29909051  0.01379806  0.70865563     0.13000
C1270       C  0.29866512  0.97878092  0.78549845    -0.22500
H1271       H  0.34385378  0.97608371  0.77350480     0.08600
C1272       C  0.38677875  0.00384102  0.75140055     0.05000
C1273       C  0.41106071  0.00083736  0.74982084    -0.19700
C1274       C  0.42108507  0.98476077  0.73444053    -0.12000
C1275       C  0.40625339  0.97083699  0.72071852     0.13700
C1276       C  0.38192673  0.97405780  0.72212749    -0.22400
C1277       C  0.37699588  0.02165559  0.76788527    -0.05500
H1278       H  0.42237571  0.01144614  0.76039114     0.15200
C1279       C  0.41524122  0.95176101  0.70529909    -0.15700
H1280       H  0.37055287  0.96336813  0.71170294     0.09500
H1281       H  0.30750156  0.98730776  0.80038873     0.07400
H1282       H  0.30043805  0.95969657  0.78775790     0.08600
H1283       H  0.27993857  0.98319978  0.78686040     0.07600
H1284       H  0.35435877  0.99928877  0.68840778     0.02500
H1285       H  0.35890313  0.02658721  0.70282915     0.03000
H1286       H  0.33320114  0.02190581  0.68566116     0.06500
H1287       H  0.39103446  0.03114653  0.77701869     0.05500
H1288       H  0.36557081  0.01309926  0.78185004    -0.00300
H1289       H  0.36670964  0.03450659  0.75753496     0.01200
H1290       H  0.40670058  0.93507065  0.71107732     0.04800
H1291       H  0.43432420  0.94927080  0.70643603     0.06800
H1292       H  0.41096649  0.95564863  0.68639229     0.07700
C1293       C  0.50121844  0.82890254  0.70874568    -0.22000
C1294       C  0.50410766  0.84152499  0.72942554     0.10000
C1295       C  0.51018390  0.82989024  0.75088629     0.10400
C1296       C  0.51271646  0.80567359  0.75126619    -0.16900
C1297       C  0.50940121  0.79299306  0.73063982    -0.27300
C1298       C  0.50420660  0.80483536  0.70898817     0.18700
C1299       C  0.50085725  0.86695598  0.72810380     0.12700
C1300       C  0.51402407  0.84306405  0.77327528    -0.11700
H1301       H  0.51676357  0.79647370  0.76776741     0.13000
C1302       C  0.50231825  0.79265110  0.68574058    -0.22500
H1303       H  0.49688231  0.83795282  0.69222407     0.08600
C1304       C  0.51820009  0.88200317  0.71788141     0.05000
C1305       C  0.51444609  0.90601081  0.71735823    -0.19700
C1306       C  0.49391697  0.91521481  0.72713362    -0.12000
C1307       C  0.47635751  0.90012260  0.73695538     0.13700
C1308       C  0.48004791  0.87612090  0.73724624    -0.22400
C1309       C  0.54089922  0.87276171  0.70820283    -0.05500
H1310       H  0.52791049  0.91771430  0.71001713     0.15200
C1311       C  0.45346280  0.90869456  0.74692024    -0.15700
H1312       H  0.46665793  0.86445019  0.74479229     0.09500
H1313       H  0.51442292  0.80103363  0.67224386     0.07400
H1314       H  0.48417713  0.79389919  0.67928371     0.08600
H1315       H  0.50715373  0.77415099  0.68725083     0.07600
H1316       H  0.49775135  0.85201964  0.77858489     0.02500
H1317       H  0.52822582  0.85613494  0.77005582     0.03000
H1318       H  0.51905000  0.83137724  0.78836094     0.06500
H1319       H  0.55277498  0.88694571  0.70139371     0.05500
H1320       H  0.53748145  0.86108920  0.69326589    -0.00300
H1321       H  0.54993698  0.86294009  0.72254295     0.01200
H1322       H  0.43883366  0.90083830  0.73716981     0.04800
H1323       H  0.45173257  0.92778651  0.74525311     0.06800
H1324       H  0.45168748  0.90347996  0.76610738     0.07700
C1325       C  0.64964000  0.98942888  0.74506406    -0.22000
C1326       C  0.63707796  0.98420121  0.72467341     0.10000
C1327       C  0.64930140  0.97940817  0.70325787     0.10400
C1328       C  0.67378880  0.98074236  0.70255927    -0.16900
C1329       C  0.68631166  0.98674850  0.72273003    -0.27300
C1330       C  0.67414343  0.99020334  0.74449760     0.18700
C1331       C  0.61115895  0.98423990  0.72607419     0.12700
C1332       C  0.63655708  0.97275457  0.68122656    -0.11700
H1333       H  0.68330326  0.97765061  0.68605723     0.13000
C1334       C  0.68646233  0.99372006  0.76754304    -0.22500
H1335       H  0.64024779  0.99269733  0.76160988     0.08600
C1336       C  0.59824416  0.96654964  0.73855774     0.05000
C1337       C  0.57374574  0.96768345  0.73961696    -0.19700
C1338       C  0.56186545  0.98597881  0.72832888    -0.12000
C1339       C  0.57488114  0.00391530  0.71616698     0.13700
C1340       C  0.59934352  0.00268458  0.71507933    -0.22400
C1341       C  0.61025361  0.94622852  0.75026667    -0.05500
H1342       H  0.56375939  0.95397396  0.74892891     0.15200
C1343       C  0.56378475  0.02506539  0.70498163    -0.15700
H1344       H  0.60935041  0.01645084  0.70587047     0.09500
H1345       H  0.68037835  0.98031468  0.78098067     0.07400
H1346       H  0.68237764  0.01113826  0.77431113     0.08600
H1347       H  0.70565397  0.99206021  0.76561049     0.07600
H1348       H  0.62512733  0.98710458  0.67527232     0.02500
H1349       H  0.62572736  0.95695431  0.68519711     0.03000
H1350       H  0.64884784  0.96902019  0.66625410     0.06500
H1351       H  0.59750482  0.93362800  0.75865735     0.05500
H1352       H  0.62187010  0.95232285  0.76441329    -0.00300
H1353       H  0.62080015  0.93704406  0.73672149     0.01200
H1354       H  0.57135297  0.04091452  0.71269126     0.04800
H1355       H  0.54465496  0.02568690  0.70811277     0.06800
H1356       H  0.56742851  0.02557846  0.68543514     0.07700
C1357       C  0.70268745  0.07073792  0.72424595    -0.22000
C1358       C  0.71303665  0.07808540  0.74524389     0.10000
C1359       C  0.72369381  0.06163787  0.76049008     0.10400
C1360       C  0.72513408  0.03854165  0.75364448    -0.16900
C1361       C  0.71625510  0.03143861  0.73189388    -0.27300
C1362       C  0.70435707  0.04756076  0.71726186     0.18700
C1363       C  0.71678645  0.10323895  0.74883311     0.12700
C1364       C  0.73504733  0.06877207  0.78317735    -0.11700
H1365       H  0.73456709  0.02620246  0.76463756     0.13000
C1366       C  0.69493141  0.04083536  0.69356763    -0.22500
H1367       H  0.69469876  0.08350568  0.71253547     0.08600
C1368       C  0.73495384  0.11524504  0.73616377     0.05000
C1369       C  0.74124575  0.13759485  0.74280408    -0.19700
C1370       C  0.73022782  0.14838564  0.76217637    -0.12000
C1371       C  0.71115060  0.13674216  0.77414544     0.13700
C1372       C  0.70468999  0.11427860  0.76725846    -0.22400
C1373       C  0.74856842  0.10406711  0.71631461    -0.05500
H1374       H  0.75538057  0.14648575  0.73298068     0.15200
C1375       C  0.69812910  0.14727126  0.79471274    -0.15700
H1376       H  0.69079800  0.10485410  0.77692872     0.09500
H1377       H  0.68759027  0.05595985  0.68370409     0.07400
H1378       H  0.68071716  0.02781228  0.69640538     0.08600
H1379       H  0.70906185  0.03352980  0.68229219     0.07600
H1380       H  0.72176883  0.07620485  0.79537657     0.02500
H1381       H  0.74896642  0.08194107  0.77902329     0.03000
H1382       H  0.74311365  0.05382465  0.79268586     0.06500
H1383       H  0.76264793  0.11568711  0.70875018     0.05500
H1384       H  0.73673441  0.09981661  0.70162914    -0.00300
H1385       H  0.75680548  0.08793375  0.72317850     0.01200
H1386       H  0.68944268  0.16341527  0.78856016     0.04800
H1387       H  0.71042708  0.15118342  0.80912129     0.06800
H1388       H  0.68436418  0.13533521  0.80237711     0.07700
C1389       C  0.74403966  0.21019094  0.66533018    -0.22000
C1390       C  0.76351615  0.22110245  0.65419535     0.10000
C1391       C  0.77974247  0.23314398  0.66777803     0.10400
C1392       C  0.77690233  0.23272768  0.69265584    -0.16900
C1393       C  0.75816899  0.22055315  0.70410809    -0.27300
C1394       C  0.74111786  0.20962053  0.69017582     0.18700
C1395       C  0.76695768  0.21828580  0.62838776     0.12700
C1396       C  0.80035847  0.24572632  0.65607308    -0.11700
H1397       H  0.78975860  0.24139516  0.70326813     0.13000
C1398       C  0.72053998  0.19623403  0.70113578    -0.22500
H1399       H  0.73156112  0.20126361  0.65447508     0.08600
C1400       C  0.77420835  0.19686872  0.61942912     0.05000
C1401       C  0.77280909  0.19320775  0.59496980    -0.19700
C1402       C  0.76460412  0.21057974  0.57947286    -0.12000
C1403       C  0.75892073  0.23258902  0.58822616     0.13700
C1404       C  0.76023169  0.23619278  0.61272249    -0.22400
C1405       C  0.78266953  0.17767093  0.63577770    -0.05500
H1406       H  0.77686517  0.17631716  0.58809539     0.15200
C1407       C  0.75005956  0.25210342  0.57253599    -0.15700
H1408       H  0.75473593  0.25260263  0.61979733     0.09500
H1409       H  0.72674844  0.18215814  0.71327267     0.07400
H1410       H  0.70976068  0.18807563  0.68738189     0.08600
H1411       H  0.70904247  0.20806767  0.71115661     0.07600
H1412       H  0.79415104  0.25950647  0.64358562     0.02500
H1413       H  0.81118699  0.23333520  0.64600540     0.03000
H1414       H  0.81154949  0.25402248  0.66939369     0.06500
H1415       H  0.78810763  0.16227623  0.62569474     0.05500
H1416       H  0.76857723  0.17207339  0.64866772    -0.00300
H1417       H  0.79793947  0.18392514  0.64572296     0.01200
H1418       H  0.73227026  0.25693539  0.57874178     0.04800
H1419       H  0.74909693  0.24755879  0.55355100     0.06800
H1420       H  0.76187844  0.26741093  0.57363998     0.07700
C1421       C  0.58231246  0.21478966  0.73056340    -0.22000
C1422       C  0.58928001  0.20202034  0.75075446     0.10000
C1423       C  0.57253805  0.18927613  0.76474299     0.10400
C1424       C  0.54880988  0.19158818  0.75960639    -0.16900
C1425       C  0.54171888  0.20642281  0.74089249    -0.27300
C1426       C  0.55870685  0.21697602  0.72530065     0.18700
C1427       C  0.61332079  0.20573129  0.75888618     0.12700
C1428       C  0.57966068  0.17403692  0.78555949    -0.11700
H1429       H  0.53578110  0.18343615  0.77151837     0.13000
C1430       C  0.55250175  0.23142562  0.70355648    -0.22500
H1431       H  0.59527510  0.22435119  0.71968678     0.08600
C1432       C  0.63284598  0.19765956  0.74612334     0.05000
C1433       C  0.65519093  0.20497640  0.75247215    -0.19700
C1434       C  0.65857205  0.22040434  0.77121619    -0.12000
C1435       C  0.63879688  0.22768951  0.78461805     0.13700
C1436       C  0.61648225  0.22025655  0.77816034    -0.22400
C1437       C  0.63010874  0.18141238  0.72578922    -0.05500
H1438       H  0.67006450  0.19897393  0.74219317     0.15200
C1439       C  0.64070280  0.24328976  0.80560950    -0.15700
H1440       H  0.60122098  0.22648539  0.78769113     0.09500
H1441       H  0.56110109  0.22419980  0.68750871     0.07400
H1442       H  0.53347290  0.23166073  0.70043478     0.08600
H1443       H  0.55873999  0.24954937  0.70554070     0.07600
H1444       H  0.58825803  0.18456457  0.79915575     0.02500
H1445       H  0.59200687  0.16072569  0.77923420     0.03000
H1446       H  0.56437591  0.16495622  0.79428183     0.06500
H1447       H  0.64727980  0.17629473  0.71812391     0.05500
H1448       H  0.62010605  0.18986220  0.71128779    -0.00300
H1449       H  0.62068234  0.16542767  0.73227600     0.01200
H1450       H  0.62344706  0.24609402  0.81444048     0.04800
H1451       H  0.64768418  0.26057352  0.79959720     0.06800
H1452       H  0.65225235  0.23532502  0.81914398     0.07700
C1453       C  0.87835985  0.23791253  0.78514045    -0.22000
C1454       C  0.88518534  0.25043859  0.76425977     0.10000
C1455       C  0.86861190  0.26327437  0.75143959     0.10400
C1456       C  0.84511598  0.26213314  0.75901227    -0.16900
C1457       C  0.83798004  0.24796030  0.77870835    -0.27300
C1458       C  0.85486181  0.23647818  0.79252106     0.18700
C1459       C  0.90952553  0.24844607  0.75550263     0.12700
C1460       C  0.87560497  0.27722683  0.72923279    -0.11700
H1461       H  0.83203362  0.27067229  0.74829117     0.13000
C1462       C  0.84846264  0.22212542  0.81466410    -0.22500
H1463       H  0.89132022  0.22842212  0.79516844     0.08600
C1464       C  0.92751463  0.26194844  0.76489852     0.05000
C1465       C  0.95072067  0.25660029  0.75933441    -0.19700
C1466       C  0.95627226  0.23787356  0.74488281    -0.12000
C1467       C  0.93822215  0.22544523  0.73405006     0.13700
C1468       C  0.91491763  0.23097632  0.73944923    -0.22400
C1469       C  0.92222087  0.28114778  0.78175036    -0.05500
H1470       H  0.96467290  0.26588631  0.76784737     0.15200
C1471       C  0.94341314  0.20548603  0.71814110    -0.15700
H1472       H  0.90084832  0.22081633  0.73221590     0.09500
H1473       H  0.85812786  0.22880098  0.83002510     0.07400
H1474       H  0.85330507  0.20377798  0.81204776     0.08600
H1475       H  0.82954841  0.22274819  0.81929664     0.07600
H1476       H  0.88319172  0.26564418  0.71570604     0.02500
H1477       H  0.88880336  0.29058695  0.73361919     0.03000
H1478       H  0.86043658  0.28615732  0.72126526     0.06500
H1479       H  0.93839537  0.29002867  0.78741937     0.05500
H1480       H  0.91291808  0.27397813  0.79797701    -0.00300
H1481       H  0.91105777  0.29424458  0.77283651     0.01200
H1482       H  0.92715019  0.19699078  0.71215702     0.04800
H1483       H  0.95380170  0.19223694  0.72782057     0.06800
H1484       H  0.95331178  0.21187504  0.70198942     0.07700
C1485       C  0.76195297  0.11727684  0.30003001    -0.22000
C1486       C  0.73965525  0.10761385  0.30441506     0.10000
C1487       C  0.71990792  0.12189014  0.30417003     0.10400
C1488       C  0.72274273  0.14542105  0.29779993    -0.16900
C1489       C  0.74492739  0.15500360  0.29221631    -0.27300
C1490       C  0.76492447  0.14089795  0.29394991     0.18700
C1491       C  0.73732746  0.08223590  0.30747259     0.12700
C1492       C  0.69592318  0.11222888  0.31047403    -0.11700
H1493       H  0.70751510  0.15638350  0.29685608     0.13000
C1494       C  0.78942796  0.14963608  0.28838759    -0.22500
H1495       H  0.77705782  0.10611201  0.30048206     0.08600
C1496       C  0.73335055  0.06825093  0.28772598     0.05000
C1497       C  0.73294675  0.04410267  0.29102374    -0.19700
C1498       C  0.73682024  0.03371927  0.31349988    -0.12000
C1499       C  0.73991694  0.04781162  0.33344883     0.13700
C1500       C  0.74019221  0.07198326  0.33012918    -0.22400
C1501       C  0.73054870  0.07878001  0.26302686    -0.05500
H1502       H  0.73098577  0.03328059  0.27570760     0.15200
C1503       C  0.74294608  0.03802966  0.35840373    -0.15700
H1504       H  0.74302959  0.08291036  0.34522427     0.09500
H1505       H  0.79723749  0.13945591  0.27378949     0.07400
H1506       H  0.80019990  0.14735127  0.30449408     0.08600
H1507       H  0.79033878  0.16812616  0.28258456     0.07600
H1508       H  0.69577200  0.10466344  0.32892825     0.02500
H1509       H  0.69113564  0.09851116  0.29796323     0.03000
H1510       H  0.68241144  0.12586843  0.30959395     0.06500
H1511       H  0.72786128  0.06529468  0.24959331     0.05500
H1512       H  0.74645860  0.08899825  0.25764916    -0.00300
H1513       H  0.71522483  0.09036246  0.26276138     0.01200
H1514       H  0.76036384  0.04319786  0.36490104     0.04800
H1515       H  0.74139953  0.01887715  0.35963590     0.06800
H1516       H  0.72924367  0.04505058  0.37041426     0.07700
C1517       C  0.77865565  0.23066365  0.40565272    -0.22000
C1518       C  0.76223350  0.21501545  0.41587840     0.10000
C1519       C  0.74498005  0.20514089  0.40160018     0.10400
C1520       C  0.74405452  0.21189294  0.37744044    -0.16900
C1521       C  0.75966420  0.22863053  0.36737107    -0.27300
C1522       C  0.77771878  0.23759971  0.38155336     0.18700
C1523       C  0.76135917  0.21190668  0.44206916     0.12700
C1524       C  0.72731715  0.18777839  0.41190835    -0.11700
H1525       H  0.73043988  0.20474500  0.36662177     0.13000
C1526       C  0.79616077  0.25439524  0.37168180    -0.22500
H1527       H  0.79165334  0.23829486  0.41689498     0.08600
C1528       C  0.77862116  0.19984270  0.45487191     0.05000
C1529       C  0.77626114  0.19748134  0.47980559    -0.19700
C1530       C  0.75734062  0.20735321  0.49193755    -0.12000
C1531       C  0.74089440  0.22061311  0.47911195     0.13700
C1532       C  0.74303658  0.22247123  0.45433720    -0.22400
C1533       C  0.79914453  0.18912777  0.44228798    -0.05500
H1534       H  0.78891849  0.18757339  0.48980652     0.15200
C1535       C  0.72129584  0.23371839  0.49084931    -0.15700
H1536       H  0.73040501  0.23254448  0.44443503     0.09500
H1537       H  0.80985219  0.25779249  0.38490172     0.07400
H1538       H  0.78822915  0.27132099  0.36694170     0.08600
H1539       H  0.80487343  0.24715241  0.35573074     0.07600
H1540       H  0.71616841  0.19586978  0.42570290     0.02500
H1541       H  0.73649097  0.17276496  0.42006531     0.03000
H1542       H  0.71564389  0.18119023  0.39801403     0.06500
H1543       H  0.81059800  0.17982783  0.45502681     0.05500
H1544       H  0.80985997  0.20280865  0.43280139    -0.00300
H1545       H  0.79285098  0.17653859  0.42921799     0.01200
H1546       H  0.72231353  0.25223064  0.48481777     0.04800
H1547       H  0.72199166  0.23346156  0.51056700     0.06800
H1548       H  0.70424105  0.22633919  0.48559745     0.07700
C1549       C  0.63195075  0.24189074  0.27159745    -0.22000
C1550       C  0.62039249  0.22657889  0.25677992     0.10000
C1551       C  0.63352595  0.21354222  0.24056242     0.10400
C1552       C  0.65796276  0.21622698  0.23938198    -0.16900
C1553       C  0.66984458  0.23166735  0.25410900    -0.27300
C1554       C  0.65644434  0.24453712  0.27066618     0.18700
C1555       C  0.59442474  0.22526355  0.25798824     0.12700
C1556       C  0.62170590  0.19670945  0.22458169    -0.11700
H1557       H  0.66781903  0.20615682  0.22672513     0.13000
C1558       C  0.66759052  0.26055419  0.28798602    -0.22500
H1559       H  0.62165311  0.25181967  0.28403596     0.08600
C1560       C  0.58217937  0.21110247  0.27518673     0.05000
C1561       C  0.55765066  0.21244628  0.27716266    -0.19700
C1562       C  0.54521923  0.22782989  0.26245050    -0.12000
C1563       C  0.55748723  0.24094496  0.24428867     0.13700
C1564       C  0.58188366  0.23950509  0.24234397    -0.22400
C1565       C  0.59510863  0.19517226  0.29189447    -0.05500
H1566       H  0.54833353  0.20255705  0.29118618     0.15200
C1567       C  0.54545046  0.25697035  0.22686202    -0.15700
H1568       H  0.59128420  0.25010349  0.22891405     0.09500
H1569       H  0.68009497  0.25075313  0.29914365     0.07400
H1570       H  0.65445288  0.26821815  0.30021110     0.08600
H1571       H  0.67671552  0.27513233  0.27817048     0.07600
H1572       H  0.60938033  0.20609765  0.21285285     0.02500
H1573       H  0.61189327  0.18339371  0.23559918     0.03000
H1574       H  0.63450061  0.18767302  0.21306089     0.06500
H1575       H  0.58297519  0.18528051  0.30425717     0.05500
H1576       H  0.60721963  0.20543244  0.30274016    -0.00300
H1577       H  0.60530453  0.18256190  0.28146198     0.01200
H1578       H  0.55165313  0.27505991  0.22915340     0.04800
H1579       H  0.52617682  0.25652983  0.22902446     0.06800
H1580       H  0.54973178  0.25181768  0.20836169     0.07700
C1581       C  0.85810598  0.26026554  0.27314862    -0.22000
C1582       C  0.86981550  0.24697719  0.29038419     0.10000
C1583       C  0.85689281  0.23462307  0.30841020     0.10400
C1584       C  0.83238242  0.23546755  0.30847332    -0.16900
C1585       C  0.82064285  0.24926474  0.29160086    -0.27300
C1586       C  0.83366291  0.26181018  0.27369526     0.18700
C1587       C  0.89567244  0.24698885  0.28922941     0.12700
C1588       C  0.86895778  0.22125164  0.32795582    -0.11700
H1589       H  0.82235191  0.22597614  0.32226884     0.13000
C1590       C  0.82185537  0.27641648  0.25487658    -0.22500
H1591       H  0.86822887  0.26972617  0.25938916     0.08600
C1592       C  0.90800199  0.23049825  0.27599796     0.05000
C1593       C  0.93210061  0.23362637  0.27183667    -0.19700
C1594       C  0.94404045  0.25306488  0.28020341    -0.12000
C1595       C  0.93178425  0.26912142  0.29421848     0.13700
C1596       C  0.90779033  0.26563264  0.29886236    -0.22400
C1597       C  0.89556343  0.21027312  0.26528867    -0.05500
H1598       H  0.94151129  0.22143629  0.26097090     0.15200
C1599       C  0.94287182  0.29093881  0.30307870    -0.15700
H1600       H  0.89815163  0.27836003  0.30883102     0.09500
H1601       H  0.83463083  0.28405081  0.24156498     0.07400
H1602       H  0.81249259  0.29093308  0.26323168     0.08600
H1603       H  0.80924399  0.26554719  0.24527122     0.07600
H1604       H  0.88027561  0.23319642  0.33787044     0.02500
H1605       H  0.87988786  0.20747348  0.32027428     0.03000
H1606       H  0.85622665  0.21291132  0.34087069     0.06500
H1607       H  0.90781313  0.19921462  0.25518990     0.05500
H1608       H  0.88212922  0.21669420  0.25282940    -0.00300
H1609       H  0.88696500  0.19929408  0.27957855     0.01200
H1610       H  0.93303311  0.30623981  0.29651246     0.04800
H1611       H  0.96118397  0.29340634  0.29682640     0.06800
H1612       H  0.94237532  0.29046808  0.32289812     0.07700
C1613       C  0.71056997  0.41563757  0.24566304    -0.22000
C1614       C  0.73117485  0.40406387  0.23988521     0.10000
C1615       C  0.75113667  0.41690764  0.23193431     0.10400
C1616       C  0.75113332  0.44114888  0.23348779    -0.16900
C1617       C  0.73148180  0.45249814  0.24259346    -0.27300
C1618       C  0.71043237  0.43985735  0.24691973     0.18700
C1619       C  0.73283974  0.37931970  0.24715934     0.12700
C1620       C  0.77273310  0.40488722  0.22310415    -0.11700
H1621       H  0.76707881  0.45096717  0.22954319     0.13000
C1622       C  0.68797184  0.45179968  0.25332380    -0.22500
H1623       H  0.69509511  0.40561355  0.25102488     0.08600
C1624       C  0.74219117  0.37302611  0.26944114     0.05000
C1625       C  0.74363402  0.34957035  0.27615946    -0.19700
C1626       C  0.73528440  0.33201453  0.26156199    -0.12000
C1627       C  0.72457433  0.33855757  0.23971341     0.13700
C1628       C  0.72384379  0.36218317  0.23269517    -0.22400
C1629       C  0.75022106  0.39112935  0.28644766    -0.05500
H1630       H  0.75119479  0.34500620  0.29318557     0.15200
C1631       C  0.71366590  0.32113638  0.22368267    -0.15700
H1632       H  0.71603987  0.36738627  0.21596197     0.09500
H1633       H  0.68927575  0.46029798  0.27070042     0.07400
H1634       H  0.67303055  0.43934324  0.25477223     0.08600
H1635       H  0.68405206  0.46504718  0.23924204     0.07600
H1636       H  0.76835361  0.39434999  0.20753360     0.02500
H1637       H  0.77967022  0.39332009  0.23737031     0.03000
H1638       H  0.78671239  0.41751648  0.21742129     0.06500
H1639       H  0.75659914  0.38318994  0.30334192     0.05500
H1640       H  0.73546544  0.40263655  0.29099330    -0.00300
H1641       H  0.76469482  0.40173330  0.27817314     0.01200
H1642       H  0.70632447  0.32957016  0.20748054     0.04800
H1643       H  0.69912667  0.31176376  0.23338157     0.06800
H1644       H  0.72686204  0.30862198  0.21763728     0.07700
C1645       C  0.77566962  0.50381644  0.18047542    -0.22000
C1646       C  0.75754316  0.50020826  0.16455531     0.10000
C1647       C  0.73505048  0.49388467  0.17353803     0.10400
C1648       C  0.73099641  0.49227765  0.19829219    -0.16900
C1649       C  0.74895107  0.49639468  0.21427073    -0.27300
C1650       C  0.77174393  0.50156406  0.20525933     0.18700
C1651       C  0.76278570  0.50143158  0.13853977     0.12700
C1652       C  0.71552414  0.48807972  0.15706545    -0.11700
H1653       H  0.71371835  0.48774376  0.20534998     0.13000
C1654       C  0.79243558  0.50358768  0.22117601    -0.22500
H1655       H  0.79310783  0.50783981  0.17349119     0.08600
C1656       C  0.75665891  0.52080751  0.12412655     0.05000
C1657       C  0.75972953  0.51992604  0.09922824    -0.19700
C1658       C  0.76983967  0.50059771  0.08861119    -0.12000
C1659       C  0.77730273  0.48182415  0.10326102     0.13700
C1660       C  0.77341900  0.48239149  0.12803086    -0.22400
C1661       C  0.74745188  0.54254395  0.13505091    -0.05500
H1662       H  0.75439114  0.53445204  0.08798530     0.15200
C1663       C  0.78872988  0.46063877  0.09343867    -0.15700
H1664       H  0.77839723  0.46768605  0.13923124     0.09500
H1665       H  0.79998483  0.52138869  0.21938273     0.07400
H1666       H  0.80591624  0.49097170  0.21576256     0.08600
H1667       H  0.78795227  0.49974885  0.24021407     0.07600
H1668       H  0.72067952  0.47331254  0.14592545     0.02500
H1669       H  0.71161389  0.50320283  0.14522663     0.03000
H1670       H  0.69922315  0.48307106  0.16714078     0.06500
H1671       H  0.74389098  0.55617311  0.12122980     0.05500
H1672       H  0.76058509  0.54954196  0.14729379    -0.00300
H1673       H  0.73099735  0.53882329  0.14530828     0.01200
H1674       H  0.80618865  0.45847204  0.10137017     0.04800
H1675       H  0.79119959  0.46166146  0.07382100     0.06800
H1676       H  0.77782401  0.44504796  0.09814168     0.07700
C1677       C  0.76768385  0.28431786  0.15494523    -0.22000
C1678       C  0.75744707  0.27221962  0.13653932     0.10000
C1679       C  0.74226275  0.25324677  0.14203340     0.10400
C1680       C  0.73748902  0.24689622  0.16594762    -0.16900
C1681       C  0.74800938  0.25863325  0.18450685    -0.27300
C1682       C  0.76339555  0.27761129  0.17895561     0.18700
C1683       C  0.76522290  0.27725776  0.11164009     0.12700
C1684       C  0.73200559  0.23893334  0.12267077    -0.11700
H1685       H  0.72593933  0.23224761  0.17019052     0.13000
C1686       C  0.77680947  0.28966497  0.19794505    -0.22500
H1687       H  0.77985184  0.29839432  0.15042217     0.08600
C1688       C  0.75089875  0.28897678  0.09522949     0.05000
C1689       C  0.75592706  0.28743167  0.07072662    -0.19700
C1690       C  0.77528188  0.27495721  0.06257724    -0.12000
C1691       C  0.79123429  0.26591803  0.07924593     0.13700
C1692       C  0.78583575  0.26694155  0.10363142    -0.22400
C1693       C  0.73000007  0.30239192  0.10357968    -0.05500
H1694       H  0.74371422  0.29442376  0.05803123     0.15200
C1695       C  0.81368873  0.25446060  0.07190130    -0.15700
H1696       H  0.79712162  0.25849771  0.11642529     0.09500
H1697       H  0.76477729  0.29846130  0.21035178     0.07400
H1698       H  0.78905023  0.30307258  0.19013561     0.08600
H1699       H  0.78722897  0.27679676  0.20810303     0.07600
H1700       H  0.74625980  0.23141558  0.11172119     0.02500
H1701       H  0.72097113  0.24986307  0.11098804     0.03000
H1702       H  0.72095226  0.22440592  0.13016840     0.06500
H1703       H  0.72073443  0.31057711  0.08836513     0.05500
H1704       H  0.73581881  0.31634232  0.11538642    -0.00300
H1705       H  0.71745268  0.29081930  0.11367190     0.01200
H1706       H  0.82857914  0.26327218  0.08035549     0.04800
H1707       H  0.81703221  0.25544900  0.05234776     0.06800
H1708       H  0.81320014  0.23593971  0.07792612     0.07700
C1709       C  0.78425141  0.26555446  0.93276394    -0.22000
C1710       C  0.76313309  0.27445118  0.92458156     0.10000
C1711       C  0.74739141  0.28457321  0.94090145     0.10400
C1712       C  0.75246357  0.28403165  0.96532307    -0.16900
C1713       C  0.77302850  0.27391689  0.97360541    -0.27300
C1714       C  0.78960599  0.26559270  0.95697881     0.18700
C1715       C  0.75745747  0.27152477  0.89915916     0.12700
C1716       C  0.72510873  0.29553134  0.93265861    -0.11700
H1717       H  0.73959667  0.29006647  0.97805721     0.13000
C1718       C  0.81290259  0.25615280  0.96429377    -0.22500
H1719       H  0.79641194  0.25792063  0.92023391     0.08600
C1720       C  0.77033731  0.28313378  0.88057509     0.05000
C1721       C  0.76547195  0.27831684  0.85683161    -0.19700
C1722       C  0.74767418  0.26256215  0.85111171    -0.12000
C1723       C  0.73444345  0.25127360  0.86976745     0.13700
C1724       C  0.73978640  0.25565128  0.89356469    -0.22400
C1725       C  0.78880098  0.30103220  0.88570962    -0.05500
H1726       H  0.77534055  0.28733810  0.84258162     0.15200
C1727       C  0.71518541  0.23416266  0.86482995    -0.15700
H1728       H  0.73023568  0.24651699  0.90795723     0.09500
H1729       H  0.82709086  0.26577650  0.95428297     0.07400
H1730       H  0.81386489  0.23750230  0.96006297     0.08600
H1731       H  0.81612996  0.25801809  0.98356665     0.07600
H1732       H  0.71363190  0.28235617  0.92472231     0.02500
H1733       H  0.72925863  0.30950374  0.91911233     0.03000
H1734       H  0.71524546  0.30329709  0.94765854     0.06500
H1735       H  0.79640623  0.30917353  0.86903679     0.05500
H1736       H  0.80325631  0.29293918  0.89566659    -0.00300
H1737       H  0.78099555  0.31494485  0.89646722     0.01200
H1738       H  0.70770599  0.22602438  0.88155989     0.04800
H1739       H  0.72209459  0.22014544  0.85360846     0.06800
H1740       H  0.70075782  0.24307878  0.85554987     0.07700
C1741       C  0.79714425  0.34280999  0.01958476    -0.22000
C1742       C  0.77626249  0.35525057  0.01863799     0.10000
C1743       C  0.75481916  0.34309913  0.01697323     0.10400
C1744       C  0.75478393  0.31880405  0.01614411    -0.16900
C1745       C  0.77562107  0.30638688  0.01708191    -0.27300
C1746       C  0.79705880  0.31848559  0.01892818     0.18700
C1747       C  0.77712659  0.38099321  0.01886425     0.12700
C1748       C  0.73193778  0.35571587  0.01665688    -0.11700
H1749       H  0.73839671  0.30933022  0.01534936     0.13000
C1750       C  0.82004539  0.30617478  0.02022634    -0.22500
H1751       H  0.81360185  0.35213903  0.02077592     0.08600
C1752       C  0.78119548  0.39308535  0.03994993     0.05000
C1753       C  0.78043291  0.41746801  0.03934241    -0.19700
C1754       C  0.77557262  0.42994084  0.01820542    -0.12000
C1755       C  0.77205839  0.41782294  0.99706403     0.13700
C1756       C  0.77297169  0.39351297  0.99760034    -0.22400
C1757       C  0.78588677  0.38028387  0.06313021    -0.05500
H1758       H  0.78332353  0.42676404  0.05547866     0.15200
C1759       C  0.76732958  0.43056010  0.97394238    -0.15700
H1760       H  0.77009950  0.38415284  0.98142395     0.09500
H1761       H  0.82842391  0.30993300  0.03737705     0.07400
H1762       H  0.83171839  0.31242944  0.00524822     0.08600
H1763       H  0.81816000  0.28711316  0.01902219     0.07600
H1764       H  0.73133878  0.36751029  0.00068513     0.02500
H1765       H  0.73000047  0.36599717  0.03299745     0.03000
H1766       H  0.71683144  0.34350845  0.01608281     0.06500
H1767       H  0.78818034  0.39237110  0.07797747     0.05500
H1768       H  0.80209390  0.37006324  0.06131739    -0.00300
H1769       H  0.77101992  0.36838646  0.06792814     0.01200
H1770       H  0.76540158  0.41855424  0.95897006     0.04800
H1771       H  0.78198775  0.44278239  0.96934647     0.06800
H1772       H  0.75085344  0.44031041  0.97592145     0.07700
C1773       C  0.75627017  0.41106464  0.78902233    -0.22000
C1774       C  0.77617965  0.39718317  0.78872209     0.10000
C1775       C  0.79854307  0.40767008  0.78852756     0.10400
C1776       C  0.80050031  0.43196741  0.78714551    -0.16900
C1777       C  0.78056718  0.44586018  0.78644382    -0.27300
C1778       C  0.75816211  0.43530142  0.78793749     0.18700
C1779       C  0.77290998  0.37181602  0.78694258     0.12700
C1780       C  0.82023859  0.39320747  0.78925874    -0.11700
H1781       H  0.81763249  0.44006553  0.78537175     0.13000
C1782       C  0.73591780  0.44901606  0.78722628    -0.22500
H1783       H  0.73910776  0.40289583  0.78926080     0.08600
C1784       C  0.76582399  0.35785861  0.80689496     0.05000
C1785       C  0.75991997  0.33453045  0.80370094    -0.19700
C1786       C  0.76096214  0.32480646  0.78101341    -0.12000
C1787       C  0.76892054  0.33863847  0.76109667     0.13700
C1788       C  0.77485880  0.36200370  0.76439628    -0.22400
C1789       C  0.76438154  0.36764194  0.83148577    -0.05500
H1790       H  0.75417698  0.32382455  0.81901016     0.15200
C1791       C  0.77022212  0.32992112  0.73602638    -0.15700
H1792       H  0.78021393  0.37291157  0.74909561     0.09500
H1793       H  0.72504839  0.44466469  0.80343125     0.07400
H1794       H  0.72599058  0.44448145  0.77119856     0.08600
H1795       H  0.73901341  0.46801539  0.78665674     0.07600
H1796       H  0.82118488  0.38213850  0.77342345     0.02500
H1797       H  0.81983321  0.38198254  0.80571245     0.03000
H1798       H  0.83631283  0.40416997  0.78929911     0.06500
H1799       H  0.75896001  0.35422251  0.84520069     0.05500
H1800       H  0.75144294  0.38180880  0.83189820    -0.00300
H1801       H  0.78174975  0.37461535  0.83628394     0.01200
H1802       H  0.75919451  0.34088558  0.72430694     0.04800
H1803       H  0.76402182  0.31178935  0.73463497     0.06800
H1804       H  0.78856780  0.33107082  0.72920481     0.07700
C1805       C  0.79785944  0.48395114  0.85777907    -0.22000
C1806       C  0.77760473  0.49243698  0.86878066     0.10000
C1807       C  0.75883395  0.49975499  0.85462105     0.10400
C1808       C  0.76030699  0.49722400  0.82983450    -0.16900
C1809       C  0.78059310  0.48884076  0.81875546    -0.27300
C1810       C  0.79984614  0.48271140  0.83286022     0.18700
C1811       C  0.77676974  0.49421502  0.89508253     0.12700
C1812       C  0.73780361  0.51129852  0.86545446    -0.11700
H1813       H  0.74587401  0.50251818  0.81885808     0.13000
C1814       C  0.82308581  0.47612586  0.82217549    -0.22500
H1815       H  0.81249698  0.47898448  0.86867307     0.08600
C1816       C  0.76437388  0.47777921  0.90973714     0.05000
C1817       C  0.76343613  0.48062194  0.93447725    -0.19700
C1818       C  0.77595359  0.49847547  0.94510389    -0.12000
C1819       C  0.78868017  0.51475835  0.93044882     0.13700
C1820       C  0.78877088  0.51252761  0.90552955    -0.22400
C1821       C  0.75297877  0.45672310  0.89943860    -0.05500
H1822       H  0.75329382  0.46848307  0.94563460     0.15200
C1823       C  0.80136448  0.53494418  0.94092982    -0.15700
H1824       H  0.79824711  0.52507586  0.89410942     0.09500
H1825       H  0.82722378  0.45804735  0.82781863     0.07400
H1826       H  0.83689215  0.48793919  0.82857609     0.08600
H1827       H  0.82357752  0.47754830  0.80243645     0.07600
H1828       H  0.74345423  0.52716099  0.87458259     0.02500
H1829       H  0.72868632  0.49947073  0.87862019     0.03000
H1830       H  0.72508094  0.51648821  0.85167410     0.06500
H1831       H  0.74452687  0.44536031  0.91355838     0.05500
H1832       H  0.76639507  0.44641557  0.89003816    -0.00300
H1833       H  0.73942902  0.46188959  0.88660368     0.01200
H1834       H  0.80948433  0.54655978  0.92682947     0.04800
H1835       H  0.81546777  0.52857024  0.95258144     0.06800
H1836       H  0.78891657  0.54531611  0.95156076     0.07700
C1837       C  0.77789823  0.60679499  0.03320386    -0.22000
C1838       C  0.77020679  0.61836926  0.01255391     0.10000
C1839       C  0.76397315  0.60549582  0.99262148     0.10400
C1840       C  0.76466872  0.58114748  0.99414663    -0.16900
C1841       C  0.77206727  0.56950798  0.01493113    -0.27300
C1842       C  0.77904937  0.58250140  0.03463695     0.18700
C1843       C  0.76806480  0.64394521  0.01256462     0.12700
C1844       C  0.75675174  0.61750667  0.96977366    -0.11700
H1845       H  0.75966895  0.57113918  0.97897798     0.13000
C1846       C  0.78719735  0.57140551  0.05764074    -0.22500
H1847       H  0.78274839  0.61680074  0.04843490     0.08600
C1848       C  0.74721959  0.65444380  0.02034102     0.05000
C1849       C  0.74604898  0.67871726  0.02054941    -0.19700
C1850       C  0.76534386  0.69270707  0.01351615    -0.12000
C1851       C  0.78638930  0.68214167  0.00626712     0.13700
C1852       C  0.78737200  0.65786281  0.00550495    -0.22400
C1853       C  0.72630562  0.64000269  0.02855447    -0.05500
H1854       H  0.73001504  0.68693406  0.02620007     0.15200
C1855       C  0.80831718  0.69590244  0.00026944    -0.15700
H1856       H  0.80347356  0.64970134  0.99992502     0.09500
H1857       H  0.77562456  0.57667481  0.07263676     0.07400
H1858       H  0.80530574  0.57733375  0.06102363     0.08600
H1859       H  0.78704859  0.55221425  0.05754935     0.07600
H1860       H  0.77117307  0.62902671  0.96279915     0.02500
H1861       H  0.74101281  0.62808712  0.97309566     0.03000
H1862       H  0.75262253  0.60489612  0.95584467     0.06500
H1863       H  0.71144177  0.65097417  0.03408878     0.05500
H1864       H  0.73097918  0.62869915  0.04406093    -0.00300
H1865       H  0.72046190  0.62900415  0.01386815     0.01200
H1866       H  0.82273387  0.68941639  0.01147714     0.04800
H1867       H  0.80642225  0.71456052  0.00377658     0.06800
H1868       H  0.81320298  0.69389653  0.98117063     0.07700
C1869       C  0.74394259  0.69711886  0.14833203    -0.22000
C1870       C  0.75428822  0.71511674  0.13430535     0.10000
C1871       C  0.76314455  0.73498826  0.14532841     0.10400
C1872       C  0.76134266  0.73646908  0.17023629    -0.16900
C1873       C  0.75034545  0.71881929  0.18424448    -0.27300
C1874       C  0.74191542  0.69869829  0.17325561     0.18700
C1875       C  0.75373921  0.71406572  0.10798324     0.12700
C1876       C  0.77385869  0.75493089  0.13073026    -0.11700
H1877       H  0.76799266  0.75172981  0.17878400     0.13000
C1878       C  0.73133294  0.67866460  0.18781197    -0.22500
H1879       H  0.73716219  0.68196987  0.13969402     0.08600
C1880       C  0.77327927  0.70729218  0.09418414     0.05000
C1881       C  0.77317970  0.71084353  0.06926086    -0.19700
C1882       C  0.75389263  0.72084248  0.05807177    -0.12000
C1883       C  0.73348850  0.72534176  0.07177417     0.13700
C1884       C  0.73377100  0.72211287  0.09660479    -0.22400
C1885       C  0.79433477  0.69690928  0.10581832    -0.05500
H1886       H  0.78867909  0.70710181  0.05867128     0.15200
C1887       C  0.71122405  0.73377370  0.06081315    -0.15700
H1888       H  0.71856791  0.72670024  0.10726379     0.09500
H1889       H  0.72656223  0.66397603  0.17644514     0.07400
H1890       H  0.71523626  0.68425593  0.19728182     0.08600
H1891       H  0.74406425  0.67227324  0.20105765     0.07600
H1892       H  0.76085307  0.76201467  0.11814956     0.02500
H1893       H  0.78929839  0.74897375  0.12041841     0.03000
H1894       H  0.77964469  0.76920717  0.14215696     0.06500
H1895       H  0.80804999  0.69253892  0.09242099     0.05500
H1896       H  0.78908671  0.68074033  0.11589086    -0.00300
H1897       H  0.80199466  0.70927877  0.11832501     0.01200
H1898       H  0.69664024  0.72176122  0.06627128     0.04800
H1899       H  0.71210853  0.73444196  0.04103599     0.06800
H1900       H  0.70720688  0.75135516  0.06719161     0.07700
C1901       C  0.64129432  0.79277081  0.28560788    -0.22000
C1902       C  0.62364980  0.77807427  0.27768970     0.10000
C1903       C  0.62969192  0.75765890  0.26595183     0.10400
C1904       C  0.65325782  0.75249959  0.26210443    -0.16900
C1905       C  0.67127578  0.76699444  0.26999471    -0.27300
C1906       C  0.66507661  0.78745581  0.28213077     0.18700
C1907       C  0.59875417  0.78333974  0.28255178     0.12700
C1908       C  0.61119956  0.74098304  0.25785936    -0.11700
H1909       H  0.65754560  0.73666894  0.25314220     0.13000
C1910       C  0.68308175  0.80372986  0.29173517    -0.22500
H1911       H  0.63638221  0.80827212  0.29486088     0.08600
C1912       C  0.58754515  0.77554026  0.30400557     0.05000
C1913       C  0.56307530  0.77465551  0.30537689    -0.19700
C1914       C  0.54957837  0.78125372  0.28575676    -0.12000
C1915       C  0.56083561  0.79099888  0.26501676     0.13700
C1916       C  0.58536688  0.79210419  0.26377443    -0.22400
C1917       C  0.60140084  0.76658143  0.32478514    -0.05500
H1918       H  0.55443404  0.76700615  0.32117911     0.15200
C1919       C  0.54732017  0.79853459  0.24347553    -0.15700
H1920       H  0.59418650  0.79811315  0.24738241     0.09500
H1921       H  0.67496547  0.81902913  0.29999920     0.07400
H1922       H  0.69502867  0.81023352  0.27718427     0.08600
H1923       H  0.69314052  0.79454126  0.30569455     0.07600
H1924       H  0.59993288  0.74976673  0.24460897     0.02500
H1925       H  0.60027470  0.73472477  0.27341441     0.03000
H1926       H  0.61894188  0.72562258  0.24936342     0.06500
H1927       H  0.58988885  0.76087388  0.34011714     0.05500
H1928       H  0.61320576  0.78051141  0.33084338    -0.00300
H1929       H  0.61198513  0.75153935  0.31935091     0.01200
H1930       H  0.53662641  0.81375351  0.24780765     0.04800
H1931       H  0.53592389  0.78415115  0.23770185     0.06800
H1932       H  0.55908514  0.80381965  0.22819666     0.07700
C1933       C  0.75256094  0.61827793  0.27398062    -0.22000
C1934       C  0.76439327  0.60927660  0.25422669     0.10000
C1935       C  0.77577952  0.62443345  0.23742988     0.10400
C1936       C  0.77465575  0.64846764  0.24054708    -0.16900
C1937       C  0.76180857  0.65751080  0.25969440    -0.27300
C1938       C  0.75097397  0.64224007  0.27686557     0.18700
C1939       C  0.76270219  0.58402571  0.25075057     0.12700
C1940       C  0.78838572  0.61523742  0.21591344    -0.11700
H1941       H  0.78265870  0.66027445  0.22724767     0.13000
C1942       C  0.73743421  0.65061287  0.29824488    -0.22500
H1943       H  0.74384998  0.60649718  0.28684421     0.08600
C1944       C  0.77702110  0.56831307  0.26316885     0.05000
C1945       C  0.77182224  0.54451408  0.26279459    -0.19700
C1946       C  0.75246480  0.53618583  0.25055408    -0.12000
C1947       C  0.73861699  0.55194481  0.23741147     0.13700
C1948       C  0.74425425  0.57566394  0.23731060    -0.22400
C1949       C  0.79723237  0.57675194  0.27742147    -0.05500
H1950       H  0.78222502  0.53239972  0.27306812     0.15200
C1951       C  0.71675112  0.54480080  0.22495602    -0.15700
H1952       H  0.73317055  0.58791634  0.22802355     0.09500
H1953       H  0.74504363  0.64321254  0.31480831     0.07400
H1954       H  0.71894607  0.64474813  0.29735713     0.08600
H1955       H  0.73779809  0.66975221  0.29952332     0.07600
H1956       H  0.77596889  0.60541342  0.20499622     0.02500
H1957       H  0.80256097  0.60353937  0.22173484     0.03000
H1958       H  0.79627565  0.62945346  0.20447741     0.06500
H1959       H  0.80671077  0.56213505  0.28598655     0.05500
H1960       H  0.79081899  0.58817040  0.29168428    -0.00300
H1961       H  0.80974899  0.58666279  0.26550548     0.01200
H1962       H  0.70175231  0.55489173  0.23178317     0.04800
H1963       H  0.71216672  0.52625105  0.22790872     0.06800
H1964       H  0.71898939  0.54843054  0.20546801     0.07700
C1965       C  0.72682877  0.87090816  0.25155392    -0.22000
C1966       C  0.74217168  0.88462258  0.26437865     0.10000
C1967       C  0.76440021  0.87620156  0.27023084     0.10400
C1968       C  0.77032541  0.85364520  0.26433181    -0.16900
C1969       C  0.75453726  0.83922134  0.25281412    -0.27300
C1970       C  0.73287438  0.84824804  0.24540953     0.18700
C1971       C  0.73502804  0.90770829  0.27218235     0.12700
C1972       C  0.78166087  0.89081287  0.28332923    -0.11700
H1973       H  0.78695134  0.84681976  0.26995249     0.13000
C1974       C  0.71663354  0.83455463  0.23023270    -0.22500
H1975       H  0.71008714  0.87789436  0.24654824     0.08600
C1976       C  0.74135214  0.92781646  0.25856265     0.05000
C1977       C  0.74078905  0.94933265  0.26942753    -0.19700
C1978       C  0.73380864  0.95102354  0.29342722    -0.12000
C1979       C  0.72539960  0.93119374  0.30637535     0.13700
C1980       C  0.72609828  0.90963913  0.29553343    -0.22400
C1981       C  0.75002048  0.92633247  0.23309804    -0.05500
H1982       H  0.74738523  0.96465076  0.25968286     0.15200
C1983       C  0.71672561  0.93209553  0.33189688    -0.15700
H1984       H  0.72120798  0.89407456  0.30588362     0.09500
H1985       H  0.70103678  0.84474109  0.22527200     0.07400
H1986       H  0.71036162  0.81852195  0.23975369     0.08600
H1987       H  0.72595620  0.82983107  0.21352881     0.07600
H1988       H  0.77411800  0.89547323  0.30093109     0.02500
H1989       H  0.78592291  0.90691918  0.27270470     0.03000
H1990       H  0.79822483  0.88149661  0.28648781     0.06500
H1991       H  0.75426576  0.94374706  0.22504007     0.05500
H1992       H  0.73632354  0.91820027  0.22229292    -0.00300
H1993       H  0.76603212  0.91569953  0.23227343     0.01200
H1994       H  0.69856218  0.92516125  0.33330564     0.04800
H1995       H  0.71659874  0.94997484  0.33864108     0.06800
H1996       H  0.72801844  0.92130732  0.34350427     0.07700
C1997       C  0.27157489  0.73448596  0.07589132    -0.22000
C1998       C  0.25403675  0.72320111  0.08981115     0.10000
C1999       C  0.23587442  0.71136223  0.07837520     0.10400
C2000       C  0.23510301  0.71205807  0.05322650    -0.16900
C2001       C  0.25218528  0.72423529  0.03933864    -0.27300
C2002       C  0.27111741  0.73485009  0.05089764     0.18700
C2003       C  0.25521505  0.72435275  0.11628125     0.12700
C2004       C  0.21724506  0.69823440  0.09272723    -0.11700
H2005       H  0.22056126  0.70401007  0.04444748     0.13000
C2006       C  0.29122535  0.74672695  0.03744036    -0.22500
H2007       H  0.28573567  0.74323071  0.08464423     0.08600
C2008       C  0.27191381  0.71168759  0.12919218     0.05000
C2009       C  0.27365730  0.71465749  0.15385879    -0.19700
C2010       C  0.25885424  0.72970438  0.16626770    -0.12000
C2011       C  0.24211685  0.74249961  0.15323061     0.13700
C2012       C  0.24052622  0.73958757  0.12844560    -0.22400
C2013       C  0.28756786  0.69461885  0.11703179    -0.05500
H2014       H  0.28633803  0.70460164  0.16367742     0.15200
C2015       C  0.22634503  0.76005792  0.16441941    -0.15700
H2016       H  0.22800883  0.74965778  0.11841140     0.09500
H2017       H  0.30791459  0.73909537  0.04337005     0.07400
H2018       H  0.29136192  0.76551703  0.04121327     0.08600
H2019       H  0.29055684  0.74465805  0.01788333     0.07600
H2020       H  0.20753377  0.71027306  0.10429066     0.02500
H2021       H  0.22542354  0.68461026  0.10407093     0.03000
H2022       H  0.20452217  0.68969656  0.08106488     0.06500
H2023       H  0.29908441  0.68556135  0.12988286     0.05500
H2024       H  0.29886537  0.70373670  0.10332358    -0.00300
H2025       H  0.27675599  0.68132724  0.10835177     0.01200
H2026       H  0.22892416  0.77712526  0.15495768     0.04800
H2027       H  0.22984502  0.76270620  0.18344256     0.06800
H2028       H  0.20784710  0.75447046  0.16279363     0.07700
C2029       C  0.37703663  0.77931939  0.25144947    -0.22000
C2030       C  0.38882708  0.76563422  0.26831023     0.10000
C2031       C  0.37678819  0.74722399  0.28065627     0.10400
C2032       C  0.35329101  0.74274330  0.27559861    -0.16900
C2033       C  0.34182372  0.75587447  0.25810831    -0.27300
C2034       C  0.35373473  0.77439482  0.24591152     0.18700
C2035       C  0.41440245  0.76897005  0.27062906     0.12700
C2036       C  0.38896965  0.73174843  0.29844722    -0.11700
H2037       H  0.34400105  0.72851673  0.28482788     0.13000
C2038       C  0.34212445  0.78841208  0.22653134    -0.22500
H2039       H  0.38644822  0.79325005  0.24187020     0.08600
C2040       C  0.43002515  0.76075916  0.25308147     0.05000
C2041       C  0.45409590  0.76211388  0.25674844    -0.19700
C2042       C  0.46301456  0.77103795  0.27773139    -0.12000
C2043       C  0.44741553  0.77963688  0.29518906     0.13700
C2044       C  0.42325052  0.77882012  0.29121858    -0.22400
C2045       C  0.42129227  0.74948531  0.23101004    -0.05500
H2046       H  0.46608412  0.75518936  0.24359270     0.15200
C2047       C  0.45544026  0.78844110  0.31869058    -0.15700
H2048       H  0.41118275  0.78494653  0.30474350     0.09500
H2049       H  0.35384625  0.80237781  0.21894589     0.07400
H2050       H  0.32612031  0.79655805  0.23372149     0.08600
H2051       H  0.33725931  0.77691882  0.21186494     0.07600
H2052       H  0.39524321  0.74214004  0.31341061     0.02500
H2053       H  0.40408064  0.72334863  0.28962404     0.03000
H2054       H  0.37713844  0.71786916  0.30602436     0.06500
H2055       H  0.43587933  0.74332033  0.21954910     0.05500
H2056       H  0.41113571  0.76210292  0.22025417    -0.00300
H2057       H  0.40997843  0.73430423  0.23618172     0.01200
H2058       H  0.45044553  0.80688070  0.32027827     0.04800
H2059       H  0.47454227  0.78723384  0.32080007     0.06800
H2060       H  0.44694361  0.77805535  0.33354004     0.07700
C2061       C  0.23660206  0.62404853  0.20003972    -0.22000
C2062       C  0.21972559  0.61387375  0.21561361     0.10000
C2063       C  0.21190832  0.62596930  0.23574480     0.10400
C2064       C  0.22094172  0.64817667  0.23963108    -0.16900
C2065       C  0.23830325  0.65832880  0.22443888    -0.27300
C2066       C  0.24610357  0.64609626  0.20417441     0.18700
C2067       C  0.21320178  0.58924282  0.21284907     0.12700
C2068       C  0.19498227  0.61499796  0.25389392    -0.11700
H2069       H  0.21492870  0.65735952  0.25515392     0.13000
C2070       C  0.26404066  0.65612426  0.18653901    -0.22500
H2071       H  0.24279134  0.61437183  0.18491752     0.08600
C2072       C  0.19114350  0.58224251  0.20473342     0.05000
C2073       C  0.18422260  0.55883116  0.20771824    -0.19700
C2074       C  0.19930589  0.54235959  0.21772402    -0.12000
C2075       C  0.22217825  0.54921454  0.22374997     0.13700
C2076       C  0.22880147  0.57256859  0.22119295    -0.22400
C2077       C  0.17506545  0.59940937  0.19300498    -0.05500
H2078       H  0.16674130  0.55353238  0.20304363     0.15200
C2079       C  0.23964147  0.53276039  0.23431940    -0.15700
H2080       H  0.24587125  0.57803668  0.22706124     0.09500
H2081       H  0.26695767  0.64463987  0.17122790     0.07400
H2082       H  0.28107695  0.65834624  0.19527643     0.08600
H2083       H  0.25795360  0.67306456  0.17932881     0.07600
H2084       H  0.20246236  0.59878481  0.26148590     0.02500
H2085       H  0.17817446  0.61084524  0.24551156     0.03000
H2086       H  0.19122812  0.62668768  0.26885402     0.06500
H2087       H  0.15856233  0.59097821  0.18757688     0.05500
H2088       H  0.18385685  0.60720482  0.17677331    -0.00300
H2089       H  0.17055476  0.61346195  0.20527652     0.01200
H2090       H  0.25553947  0.53259827  0.22261642     0.04800
H2091       H  0.23290408  0.51481524  0.23632209     0.06800
H2092       H  0.24453882  0.53856408  0.25225665     0.07700
C2093       C  0.29409443  0.86623717  0.26087636    -0.22000
C2094       C  0.28100513  0.88223090  0.24765639     0.10000
C2095       C  0.26187045  0.87434005  0.23460380     0.10400
C2096       C  0.25590424  0.85068328  0.23550500    -0.16900
C2097       C  0.26826286  0.83458069  0.24956175    -0.27300
C2098       C  0.28790902  0.84251525  0.26220825     0.18700
C2099       C  0.28525983  0.90744747  0.25032439     0.12700
C2100       C  0.24712235  0.89106571  0.22048952    -0.11700
H2101       H  0.24103092  0.84483845  0.22558455     0.13000
C2102       C  0.30157757  0.82660352  0.27835855    -0.22500
H2103       H  0.30854288  0.87257250  0.27111426     0.08600
C2104       C  0.27415620  0.91917062  0.26905264     0.05000
C2105       C  0.27491904  0.94345180  0.26895745    -0.19700
C2106       C  0.28635947  0.95643883  0.25049915    -0.12000
C2107       C  0.29848764  0.94464541  0.23229875     0.13700
C2108       C  0.29800623  0.92021102  0.23262266    -0.22400
C2109       C  0.26038525  0.90606428  0.28844823    -0.05500
H2110       H  0.26536924  0.95246591  0.28271102     0.15200
C2111       C  0.31063306  0.95709223  0.21143980    -0.15700
H2112       H  0.30640902  0.91111546  0.21818842     0.09500
H2113       H  0.31546436  0.83611239  0.28770107     0.07400
H2114       H  0.31023611  0.81305843  0.26786922     0.08600
H2115       H  0.28971315  0.81832810  0.29214286     0.07600
H2116       H  0.25811146  0.90031730  0.20659787     0.02500
H2117       H  0.23927442  0.90391559  0.23255043     0.03000
H2118       H  0.23268620  0.88205796  0.21147467     0.06500
H2119       H  0.25260070  0.91790361  0.30162323     0.05500
H2120       H  0.27200586  0.89391477  0.29811963    -0.00300
H2121       H  0.24596430  0.89606696  0.28052719     0.01200
H2122       H  0.32955797  0.95312334  0.21151709     0.04800
H2123       H  0.30865247  0.97613064  0.21165668     0.06800
H2124       H  0.30319996  0.95111616  0.19453604     0.07700
C2125       C  0.21883554  0.76409125  0.36248072    -0.22000
C2126       C  0.23426525  0.74864706  0.37328518     0.10000
C2127       C  0.25240666  0.73909927  0.35943110     0.10400
C2128       C  0.25451319  0.74499186  0.33492075    -0.16900
C2129       C  0.23906478  0.76054695  0.32373328    -0.27300
C2130       C  0.22095645  0.77034472  0.33806356     0.18700
C2131       C  0.23254916  0.74450679  0.39959475     0.12700
C2132       C  0.26981266  0.72298649  0.37068098    -0.11700
H2133       H  0.26841161  0.73732511  0.32449313     0.13000
C2134       C  0.20383733  0.78771625  0.32831701    -0.22500
H2135       H  0.20524954  0.77164727  0.37344712     0.08600
C2136       C  0.24313648  0.76008577  0.41507179     0.05000
C2137       C  0.24333233  0.75468309  0.43958915    -0.19700
C2138       C  0.23300838  0.73417076  0.44921843    -0.12000
C2139       C  0.22158285  0.71892945  0.43386500     0.13700
C2140       C  0.22135275  0.72438051  0.40918200    -0.22400
C2141       C  0.25511645  0.78197786  0.40557855    -0.05500
H2142       H  0.25262251  0.76604930  0.45127402     0.15200
C2143       C  0.21058568  0.69634788  0.44273331    -0.15700
H2144       H  0.21316777  0.71245074  0.39725170     0.09500
H2145       H  0.19176099  0.79399344  0.34243402     0.07400
H2146       H  0.19289033  0.77962820  0.31468107     0.08600
H2147       H  0.21339493  0.80310415  0.32050967     0.07600
H2148       H  0.26062507  0.70740134  0.37851652     0.02500
H2149       H  0.27909381  0.73198717  0.38498175     0.03000
H2150       H  0.28306078  0.71716130  0.35745893     0.06500
H2151       H  0.26284483  0.79204572  0.42008540     0.05500
H2152       H  0.24231603  0.79318597  0.39633304    -0.00300
H2153       H  0.26937326  0.77760027  0.39280147     0.01200
H2154       H  0.19173875  0.69620697  0.43851025     0.04800
H2155       H  0.21209304  0.69346354  0.46226451     0.06800
H2156       H  0.21919616  0.68171730  0.43375129     0.07700
C2157       C  0.11314770  0.71540686  0.48281700    -0.22000
C2158       C  0.12544831  0.73022248  0.49766581     0.10000
C2159       C  0.11271616  0.74512051  0.51253293     0.10400
C2160       C  0.08814586  0.74498263  0.51205147    -0.16900
C2161       C  0.07572328  0.73004501  0.49737488    -0.27300
C2162       C  0.08852578  0.71518596  0.48233652     0.18700
C2163       C  0.15159255  0.72982924  0.49741875     0.12700
C2164       C  0.12500629  0.76079504  0.52936849    -0.11700
H2165       H  0.07851758  0.75652033  0.52345432     0.13000
C2166       C  0.07707850  0.69965636  0.46476448    -0.22500
H2167       H  0.12288509  0.70413987  0.47118967     0.08600
C2168       C  0.16388801  0.71113473  0.50783849     0.05000
C2169       C  0.18847555  0.71135623  0.50690563    -0.19700
C2170       C  0.20123646  0.73002773  0.49625184    -0.12000
C2171       C  0.18894458  0.74935099  0.48709205     0.13700
C2172       C  0.16434423  0.74872903  0.48716198    -0.22400
C2173       C  0.15108320  0.69111798  0.52030899    -0.05500
H2174       H  0.19789962  0.69672040  0.51427235     0.15200
C2175       C  0.20118507  0.77128812  0.47831823    -0.15700
H2176       H  0.15501444  0.76336630  0.47963601     0.09500
H2177       H  0.08086405  0.68126479  0.46946947     0.07400
H2178       H  0.08426293  0.70379866  0.44654477     0.08600
H2179       H  0.05792402  0.70169681  0.46406042     0.07600
H2180       H  0.13636832  0.77345075  0.51916079     0.02500
H2181       H  0.13584497  0.75026488  0.54167755     0.03000
H2182       H  0.11243189  0.77072910  0.54030714     0.06500
H2183       H  0.16333055  0.67832853  0.52810935     0.05500
H2184       H  0.14002211  0.68199427  0.50749120    -0.00300
H2185       H  0.13987258  0.69764774  0.53500548     0.01200
H2186       H  0.19810760  0.77419765  0.45898186     0.04800
H2187       H  0.22022268  0.77088046  0.48134181     0.06800
H2188       H  0.19417546  0.78619669  0.48818091     0.07700
C2189       C  0.13570619  0.71358324  0.28260792    -0.22000
C2190       C  0.12140688  0.70823960  0.26360848     0.10000
C2191       C  0.13025237  0.71078051  0.23993310     0.10400
C2192       C  0.15304969  0.71944839  0.23576369    -0.16900
C2193       C  0.16707505  0.72585637  0.25473041    -0.27300
C2194       C  0.15856719  0.72202327  0.27856195     0.18700
C2195       C  0.09668856  0.70162885  0.26871472     0.12700
C2196       C  0.11546201  0.70472277  0.21907766    -0.11700
H2197       H  0.15961173  0.72209448  0.21758295     0.13000
C2198       C  0.17308823  0.72601697  0.30024013    -0.22500
H2199       H  0.12890451  0.71129331  0.30075123     0.08600
C2200       C  0.08973857  0.67863211  0.27487017     0.05000
C2201       C  0.06578809  0.67305856  0.27693729    -0.19700
C2202       C  0.04877847  0.68998110  0.27286673    -0.12000
C2203       C  0.05590677  0.71311665  0.26733685     0.13700
C2204       C  0.07977187  0.71872288  0.26584184    -0.22400
C2205       C  0.10755257  0.65989703  0.27822138    -0.05500
H2206       H  0.06029561  0.65521665  0.28050501     0.15200
C2207       C  0.03859775  0.73154530  0.26084089    -0.15700
H2208       H  0.08533821  0.73631154  0.26101528     0.09500
H2209       H  0.17296697  0.70997889  0.31172318     0.07400
H2210       H  0.16549734  0.74029620  0.31063822     0.08600
H2211       H  0.19164105  0.73018156  0.29591423     0.07600
H2212       H  0.09971117  0.71574698  0.21870514     0.02500
H2213       H  0.10997561  0.68620626  0.22072635     0.03000
H2214       H  0.12513646  0.70746057  0.20180615     0.06500
H2215       H  0.09917005  0.64280290  0.28269197     0.05500
H2216       H  0.11923363  0.66432922  0.29298740    -0.00300
H2217       H  0.11816042  0.65826705  0.26154312     0.01200
H2218       H  0.04725273  0.74859809  0.25683641     0.04800
H2219       H  0.02597119  0.73380071  0.27579340     0.06800
H2220       H  0.02931233  0.72647732  0.24463413     0.07700
C2221       C  0.93132045  0.71559621  0.26028633    -0.22000
C2222       C  0.91475709  0.70079283  0.27165078     0.10000
C2223       C  0.92206119  0.68027669  0.28349263     0.10400
C2224       C  0.94599514  0.67499239  0.28351802    -0.16900
C2225       C  0.96251937  0.68977657  0.27187136    -0.27300
C2226       C  0.95505038  0.71035623  0.26013788     0.18700
C2227       C  0.88996858  0.70757416  0.27047570     0.12700
C2228       C  0.90464452  0.66402637  0.29589811    -0.11700
H2229       H  0.95176688  0.65899108  0.29200433     0.13000
C2230       C  0.97145956  0.72693883  0.24669418    -0.22500
H2231       H  0.92558898  0.73127719  0.25109755     0.08600
C2232       C  0.88174192  0.72665410  0.28310175     0.05000
C2233       C  0.85957117  0.73529861  0.27834346    -0.19700
C2234       C  0.84508935  0.72531092  0.26130684    -0.12000
C2235       C  0.85286158  0.70507403  0.24979787     0.13700
C2236       C  0.87536635  0.69669347  0.25436476    -0.22400
C2237       C  0.89642317  0.73798662  0.30158859    -0.05500
H2238       H  0.85370788  0.75024191  0.28797184     0.15200
C2239       C  0.83800583  0.69233853  0.23247157    -0.15700
H2240       H  0.88192418  0.68197715  0.24479615     0.09500
H2241       H  0.97035394  0.74435001  0.25454096     0.07400
H2242       H  0.96645382  0.72830815  0.22768805     0.08600
H2243       H  0.98982077  0.72144493  0.24725632     0.07600
H2244       H  0.89217364  0.65735948  0.28280035     0.02500
H2245       H  0.89486203  0.67336549  0.30989754     0.03000
H2246       H  0.91331972  0.64893239  0.30451806     0.06500
H2247       H  0.88701206  0.75226537  0.31036665     0.05500
H2248       H  0.91267692  0.74542560  0.29319876    -0.00300
H2249       H  0.90103035  0.72491150  0.31559495     0.01200
H2250       H  0.84710072  0.67705710  0.22526727     0.04800
H2251       H  0.83374906  0.70402857  0.21712844     0.06800
H2252       H  0.82169429  0.68588394  0.24161982     0.07700
C2253       C  0.01177240  0.68963796  0.34834446    -0.22000
C2254       C  0.00242047  0.71130959  0.35359536     0.10000
C2255       C  0.99356132  0.72533222  0.33484957     0.10400
C2256       C  0.99472042  0.71752254  0.31126123    -0.16900
C2257       C  0.00430731  0.69589563  0.30602260    -0.27300
C2258       C  0.01215122  0.68147279  0.32501004     0.18700
C2259       C  0.00115199  0.71822127  0.37904216     0.12700
C2260       C  0.98236657  0.74821488  0.33983997    -0.11700
H2261       H  0.98805946  0.72826997  0.29685470     0.13000
C2262       C  0.01980167  0.65687218  0.32155105    -0.22500
H2263       H  0.01810710  0.67862102  0.36276183     0.08600
C2264       C  0.98550233  0.70705769  0.39562614     0.05000
C2265       C  0.98631951  0.71247887  0.41985760    -0.19700
C2266       C  0.00216123  0.72908263  0.42808821    -0.12000
C2267       C  0.01716367  0.74100090  0.41131202     0.13700
C2268       C  0.01657105  0.73530076  0.38702276    -0.22400
C2269       C  0.96783750  0.68944513  0.38777007    -0.05500
H2270       H  0.97462498  0.70344737  0.43256682     0.15200
C2271       C  0.03452076  0.75892965  0.41902152    -0.15700
H2272       H  0.02856845  0.74381906  0.37425043     0.09500
H2273       H  0.00909944  0.64498166  0.33343524     0.07400
H2274       H  0.03844260  0.65516489  0.32623557     0.08600
H2275       H  0.01758605  0.65102608  0.30311561     0.07600
H2276       H  0.99526055  0.76008033  0.34773765     0.02500
H2277       H  0.96734212  0.74543118  0.35251736     0.03000
H2278       H  0.97583709  0.75674958  0.32330581     0.06500
H2279       H  0.95634843  0.68306418  0.40285538     0.05500
H2280       H  0.97682702  0.67425761  0.38031151    -0.00300
H2281       H  0.95663030  0.69742665  0.37393719     0.01200
H2282       H  0.04628667  0.75112341  0.43245694     0.04800
H2283       H  0.02516117  0.77372936  0.42685780     0.06800
H2284       H  0.04547541  0.76584250  0.40375978     0.07700
C2285       C  0.99533162  0.75129878  0.66215041    -0.22000
C2286       C  0.00141402  0.73222208  0.64850747     0.10000
C2287       C  0.00673727  0.71096038  0.66019454     0.10400
C2288       C  0.00502146  0.70905889  0.68523668    -0.16900
C2289       C  0.99862326  0.72802382  0.69895247    -0.27300
C2290       C  0.99412416  0.74952742  0.68724825     0.18700
C2291       C  0.00202050  0.73480355  0.62201006     0.12700
C2292       C  0.01480389  0.69048063  0.64627122    -0.11700
H2293       H  0.00894893  0.69277089  0.69426661     0.13000
C2294       C  0.98899937  0.77084890  0.70112670    -0.22500
H2295       H  0.99162267  0.76766687  0.65308857     0.08600
C2296       C  0.98288364  0.72781002  0.60841212     0.05000
C2297       C  0.98469328  0.72918548  0.58337843    -0.19700
C2298       C  0.00493958  0.73797491  0.57154185    -0.12000
C2299       C  0.02388486  0.74565633  0.58518325     0.13700
C2300       C  0.02214771  0.74397833  0.61027854    -0.22400
C2301       C  0.96046392  0.71912651  0.62033085    -0.05500
H2302       H  0.97016531  0.72337998  0.57291455     0.15200
C2303       C  0.04644537  0.75481459  0.57397608    -0.15700
H2304       H  0.03678518  0.74943640  0.62077544     0.09500
H2305       H  0.98813453  0.78657360  0.68926054     0.07400
H2306       H  0.00290946  0.77371573  0.71422945     0.08600
H2307       H  0.97190260  0.76886726  0.71052730     0.07600
H2308       H  0.03103917  0.69522017  0.63596884     0.02500
H2309       H  0.00118397  0.68518969  0.63371410     0.03000
H2310       H  0.01857107  0.67531297  0.65818992     0.06500
H2311       H  0.94716293  0.71459875  0.60707357     0.05500
H2312       H  0.95315133  0.73280147  0.63174058    -0.00300
H2313       H  0.96372314  0.70341097  0.63159494     0.01200
H2314       H  0.04953620  0.77288191  0.57954592     0.04800
H2315       H  0.04653305  0.75483806  0.55423438     0.06800
H2316       H  0.06113056  0.74388356  0.58005473     0.07700
C2317       C  0.78334965  0.77271693  0.41943407    -0.22000
C2318       C  0.78663322  0.79145855  0.40321514     0.10000
C2319       C  0.79239607  0.81353577  0.41165219     0.10400
C2320       C  0.79417249  0.81648264  0.43630260    -0.16900
C2321       C  0.79006222  0.79793006  0.45273338    -0.27300
C2322       C  0.78477443  0.77569151  0.44412168     0.18700
C2323       C  0.78327559  0.78766452  0.37750548     0.12700
C2324       C  0.79610631  0.83405751  0.39467515    -0.11700
H2325       H  0.79759927  0.83363790  0.44290644     0.13000
C2326       C  0.77929404  0.75530820  0.46074474    -0.22500
H2327       H  0.77892539  0.75582879  0.41272038     0.08600
C2328       C  0.80095920  0.77797092  0.36322813     0.05000
C2329       C  0.79702413  0.77477848  0.33893880    -0.19700
C2330       C  0.77591509  0.78137247  0.32847560    -0.12000
C2331       C  0.75844568  0.79177360  0.34275122     0.13700
C2332       C  0.76216923  0.79423645  0.36722390    -0.22400
C2333       C  0.82411298  0.77143756  0.37356734    -0.05500
H2334       H  0.81060640  0.76721487  0.32796939     0.15200
C2335       C  0.73638862  0.80178483  0.33276085    -0.15700
H2336       H  0.74879023  0.80204841  0.37826042     0.09500
H2337       H  0.77367876  0.73982645  0.45094719     0.07400
H2338       H  0.76500586  0.75961779  0.47351058     0.08600
H2339       H  0.79520165  0.75055577  0.47044234     0.07600
H2340       H  0.77991796  0.83741159  0.38468093     0.02500
H2341       H  0.81057915  0.83047125  0.38185225     0.03000
H2342       H  0.80065227  0.85002877  0.40422497     0.06500
H2343       H  0.83620030  0.76446185  0.35984871     0.05500
H2344       H  0.82144448  0.75795169  0.38794802    -0.00300
H2345       H  0.83251760  0.78696479  0.38108330     0.01200
H2346       H  0.72101813  0.79219661  0.34064411     0.04800
H2347       H  0.73568826  0.80129703  0.31308827     0.06800
H2348       H  0.73513958  0.82030375  0.33747185     0.07700
C2349       C  0.84441855  0.75268334  0.51131389    -0.22000
C2350       C  0.86353803  0.76604007  0.50240482     0.10000
C2351       C  0.85946727  0.78828110  0.49217413     0.10400
C2352       C  0.83648881  0.79637490  0.49061941    -0.16900
C2353       C  0.81726037  0.78299255  0.49918525    -0.27300
C2354       C  0.82134970  0.76081464  0.50980270     0.18700
C2355       C  0.88764746  0.75640148  0.50322738     0.12700
C2356       C  0.87942359  0.80376834  0.48337250    -0.11700
H2357       H  0.83342754  0.81350602  0.48293701     0.13000
C2358       C  0.80187213  0.74490278  0.51880080    -0.22500
H2359       H  0.84747431  0.73557127  0.51906993     0.08600
C2360       C  0.90036113  0.75512220  0.52455093     0.05000
C2361       C  0.92389610  0.74815483  0.52377276    -0.19700
C2362       C  0.93503357  0.74249519  0.50216159    -0.12000
C2363       C  0.92208458  0.74314972  0.48096492     0.13700
C2364       C  0.89855821  0.74985591  0.48182560    -0.22400
C2365       C  0.88940672  0.76202990  0.54791397    -0.05500
H2366       H  0.93391364  0.74793771  0.53995637     0.15200
C2367       C  0.93274961  0.73768103  0.45699197    -0.15700
H2368       H  0.88883354  0.75075352  0.46545775     0.09500
H2369       H  0.80316566  0.74203064  0.53839785     0.07400
H2370       H  0.80329356  0.72794729  0.51004710     0.08600
H2371       H  0.78441529  0.75182778  0.51478947     0.07600
H2372       H  0.88904715  0.79556839  0.46851621     0.02500
H2373       H  0.89153985  0.80678624  0.49818027     0.03000
H2374       H  0.87322099  0.82089097  0.47668374     0.06500
H2375       H  0.90187142  0.76049951  0.56275675     0.05500
H2376       H  0.87410193  0.75063248  0.55245823    -0.00300
H2377       H  0.88362553  0.78032107  0.54649825     0.01200
H2378       H  0.92287733  0.72317878  0.44919825     0.04800
H2379       H  0.95126954  0.73251665  0.45801016     0.06800
H2380       H  0.93182844  0.75317526  0.44481509     0.07700
C2381       C  0.13120881  0.71739925  0.71062245    -0.22000
C2382       C  0.11684787  0.71873303  0.73098767     0.10000
C2383       C  0.12695884  0.72130025  0.75353046     0.10400
C2384       C  0.15133759  0.72374496  0.75501008    -0.16900
C2385       C  0.16567723  0.72403172  0.73437762    -0.27300
C2386       C  0.15549987  0.72009971  0.71195325     0.18700
C2387       C  0.09119459  0.71846257  0.72822311     0.12700
C2388       C  0.11191978  0.72227909  0.77585954    -0.11700
H2389       H  0.15906867  0.72677722  0.77212650     0.13000
C2390       C  0.17005196  0.71873188  0.68927073    -0.22500
H2391       H  0.12325681  0.71503047  0.69348546     0.08600
C2392       C  0.07896871  0.73898303  0.72261209     0.05000
C2393       C  0.05443072  0.73854384  0.72325472    -0.19700
C2394       C  0.04205403  0.71809093  0.72959005    -0.12000
C2395       C  0.05432425  0.69721252  0.73330379     0.13700
C2396       C  0.07882351  0.69763100  0.73248300    -0.22400
C2397       C  0.09182913  0.76150882  0.71710685    -0.05500
H2398       H  0.04493389  0.75452689  0.72056882     0.15200
C2399       C  0.04158761  0.67459601  0.73876667    -0.15700
H2400       H  0.08838832  0.68187392  0.73621623     0.09500
H2401       H  0.15940431  0.71333955  0.67403111     0.07400
H2402       H  0.18406471  0.70579235  0.69173417     0.08600
H2403       H  0.17784430  0.73592830  0.68426170     0.07600
H2404       H  0.10171897  0.70587155  0.77840473     0.02500
H2405       H  0.09969909  0.73702820  0.77433475     0.03000
H2406       H  0.12255206  0.72463926  0.79195134     0.06500
H2407       H  0.07962697  0.77594102  0.71340946     0.05500
H2408       H  0.10339078  0.75967684  0.70112913    -0.00300
H2409       H  0.10258274  0.76618481  0.73251646     0.01200
H2410       H  0.05386899  0.65993081  0.74070453     0.04800
H2411       H  0.02967569  0.67071808  0.72404189     0.06800
H2412       H  0.03127626  0.67557014  0.75568013     0.07700
C2413       C  0.25789225  0.61486483  0.78295696    -0.22000
C2414       C  0.24282428  0.60351789  0.76773173     0.10000
C2415       C  0.22994379  0.61681146  0.75115210     0.10400
C2416       C  0.23302517  0.64110766  0.74966175    -0.16900
C2417       C  0.24909484  0.65251117  0.76402772    -0.27300
C2418       C  0.26132807  0.63905372  0.78135635     0.18700
C2419       C  0.24213097  0.57762742  0.76833888     0.12700
C2420       C  0.21354465  0.60525176  0.73445318    -0.11700
H2421       H  0.22349348  0.65111570  0.73651408     0.13000
C2422       C  0.27796723  0.64978611  0.79850929    -0.22500
H2423       H  0.26756486  0.60455531  0.79576243     0.08600
C2424       C  0.26019628  0.56485872  0.75754705     0.05000
C2425       C  0.25831775  0.54058489  0.75709573    -0.19700
C2426       C  0.23902700  0.52854548  0.76749853    -0.12000
C2427       C  0.22121897  0.54125377  0.77892983     0.13700
C2428       C  0.22307504  0.56564163  0.77932059    -0.22400
C2429       C  0.28119418  0.57687027  0.74588570    -0.05500
H2430       H  0.27179638  0.53089364  0.74803909     0.15200
C2431       C  0.19962366  0.52983211  0.78993021    -0.15700
H2432       H  0.20926629  0.57542424  0.78772478     0.09500
H2433       H  0.29374455  0.65672308  0.78876970     0.07400
H2434       H  0.28407844  0.63688840  0.81202734     0.08600
H2435       H  0.26913541  0.66384752  0.80821349     0.27600
H2436       H  0.19959886  0.59570807  0.74488345     0.02500
H2437       H  0.22333312  0.59288249  0.72332233     0.03000
H2438       H  0.20508374  0.61805605  0.72234656     0.06500
H2439       H  0.29339377  0.56432708  0.73780608     0.05500
H2440       H  0.29089886  0.58659762  0.75935482    -0.00300
H2441       H  0.27550346  0.58910422  0.73155243     0.01200
H2442       H  0.19869077  0.53330663  0.80929981     0.04800
H2443       H  0.19921946  0.51081378  0.78779908     0.06800
H2444       H  0.18391002  0.53706710  0.78132504     0.07700
C2445       C  0.38367614  0.74237661  0.74166073    -0.22000
C2446       C  0.39209030  0.76146488  0.72794495     0.10000
C2447       C  0.37616936  0.77689666  0.71735464     0.10400
C2448       C  0.35201134  0.77322045  0.72140195    -0.16900
C2449       C  0.34348183  0.75448313  0.73592216    -0.27300
C2450       C  0.35968076  0.73857991  0.74577174     0.18700
C2451       C  0.41779157  0.76439657  0.72515888     0.12700
C2452       C  0.38472737  0.79720581  0.70194583    -0.11700
H2453       H  0.33977396  0.78523282  0.71349238     0.13000
C2454       C  0.35201975  0.71710320  0.76004425    -0.22500
H2455       H  0.39610274  0.73039333  0.74932709     0.08600
C2456       C  0.43104583  0.77477094  0.74298666     0.05000
C2457       C  0.45550388  0.77287687  0.74228654    -0.19700
C2458       C  0.46690053  0.76037649  0.72445018    -0.12000
C2459       C  0.45366285  0.75129975  0.70575153     0.13700
C2460       C  0.42927363  0.75345539  0.70635621    -0.22400
C2461       C  0.41924821  0.78679773  0.76337697    -0.05500
H2462       H  0.46557355  0.77969085  0.75669349     0.15200
C2463       C  0.46459537  0.73882364  0.68514996    -0.15700
H2464       H  0.41904421  0.74555327  0.69265945     0.09500
H2465       H  0.34353073  0.72196726  0.77712460     0.07400
H2466       H  0.36702058  0.70588930  0.76458789     0.08600
H2467       H  0.33972847  0.70667788  0.74955432     0.07600
H2468       H  0.39503829  0.79089208  0.68649206     0.02500
H2469       H  0.39595538  0.80868756  0.71248392     0.03000
H2470       H  0.37002501  0.80761313  0.69499270     0.06500
H2471       H  0.43212668  0.79396411  0.77579944     0.05500
H2472       H  0.40768500  0.77435536  0.77366398    -0.00300
H2473       H  0.40863097  0.80133842  0.75632568     0.01200
H2474       H  0.45801370  0.72063526  0.68529321     0.04800
H2475       H  0.48390968  0.73856300  0.68559411     0.06800
H2476       H  0.45977531  0.74764561  0.66811466     0.07700
C2477       C  0.26042127  0.75580240  0.61965064    -0.22000
C2478       C  0.24246159  0.74067362  0.61287813     0.10000
C2479       C  0.22754327  0.73029023  0.63063513     0.10400
C2480       C  0.23043553  0.73582859  0.65459239    -0.16900
C2481       C  0.24798989  0.75132570  0.66134534    -0.27300
C2482       C  0.26332555  0.76128271  0.64374953     0.18700
C2483       C  0.23966183  0.73569312  0.58718530     0.12700
C2484       C  0.20817504  0.71383511  0.62428502    -0.11700
H2485       H  0.21869936  0.72825570  0.66819586     0.13000
C2486       C  0.28212097  0.77822691  0.65032917    -0.22500
H2487       H  0.27199336  0.76354746  0.60598911     0.08600
C2488       C  0.23006112  0.75200153  0.57093360     0.05000
C2489       C  0.22861610  0.74665396  0.54665179    -0.19700
C2490       C  0.23653805  0.72535791  0.53830490    -0.12000
C2491       C  0.24473690  0.70852436  0.55494698     0.13700
C2492       C  0.24650972  0.71403760  0.57903187    -0.22400
C2493       C  0.22166515  0.77513845  0.57915789    -0.05500
H2494       H  0.22255927  0.75965799  0.53394668     0.15200
C2495       C  0.25184165  0.68455631  0.54788467    -0.15700
H2496       H  0.25346218  0.70135088  0.59156752     0.09500
H2497       H  0.29236440  0.78471705  0.63438960     0.07400
H2498       H  0.29431066  0.76966363  0.66284191     0.08600
H2499       H  0.27411866  0.79333650  0.65905399     0.07600
H2500       H  0.21558380  0.69829374  0.61588324     0.02500
H2501       H  0.19625418  0.72262239  0.61165301     0.03000
H2502       H  0.19772709  0.70785018  0.64028497     0.06500
H2503       H  0.21430577  0.78567415  0.56427939     0.05500
H2504       H  0.23639533  0.78509729  0.58652922    -0.00300
H2505       H  0.20781663  0.77245994  0.59318714     0.01200
H2506       H  0.27076374  0.68222276  0.55097664     0.04800
H2507       H  0.24829802  0.68111987  0.52895328     0.06800
H2508       H  0.24179453  0.67142873  0.55893331     0.07700
C2509       C  0.23125768  0.70862009  0.85895873    -0.22000
C2510       C  0.24421045  0.72314598  0.87341095     0.10000
C2511       C  0.25949747  0.73993818  0.86244267     0.10400
C2512       C  0.26203075  0.74121599  0.83737757    -0.16900
C2513       C  0.24948426  0.72628975  0.82284229    -0.27300
C2514       C  0.23374586  0.70978091  0.83392243     0.18700
C2515       C  0.24190991  0.72020629  0.89995320     0.12700
C2516       C  0.27306772  0.75662908  0.87715796    -0.11700
H2517       H  0.27418142  0.75372355  0.82905792     0.13000
C2518       C  0.22022438  0.69204393  0.82037927    -0.22500
H2519       H  0.21964443  0.69565135  0.86734997     0.08600
C2520       C  0.22167724  0.72711276  0.91260870     0.05000
C2521       C  0.22139496  0.72633965  0.93771487    -0.19700
C2522       C  0.24093025  0.71915498  0.95062783    -0.12000
C2523       C  0.26075493  0.71119727  0.93795313     0.13700
C2524       C  0.26082064  0.71142428  0.91280664    -0.22400
C2525       C  0.20093904  0.73671444  0.89971770    -0.05500
H2526       H  0.20642211  0.73301151  0.94736799     0.15200
C2527       C  0.28247264  0.70402154  0.95072692    -0.15700
H2528       H  0.27619126  0.70580341  0.90304664     0.09500
H2529       H  0.20121557  0.69472698  0.82328470     0.07400
H2530       H  0.22462612  0.67435966  0.82711730     0.08600
H2531       H  0.22394350  0.69252948  0.80098180     0.07600
H2532       H  0.28531097  0.74703429  0.88877661     0.02500
H2533       H  0.26082689  0.76660705  0.88842732     0.03000
H2534       H  0.28350802  0.76916949  0.86575744     0.06500
H2535       H  0.18694782  0.74210794  0.91235208     0.05500
H2536       H  0.19344818  0.72334282  0.88820856    -0.00300
H2537       H  0.20641588  0.75211808  0.88851144     0.01200
H2538       H  0.29676842  0.69955291  0.93802012     0.04800
H2539       H  0.27862914  0.68847525  0.96227896     0.06800
H2540       H  0.28881027  0.71836627  0.96175703     0.07700
C2541       C  0.25289723  0.87291765  0.71428385    -0.22000
C2542       C  0.26869814  0.88091969  0.73099405     0.10000
C2543       C  0.28226566  0.86472813  0.74381549     0.10400
C2544       C  0.27872447  0.84082368  0.74064297    -0.16900
C2545       C  0.26183445  0.83273456  0.72499131    -0.27300
C2546       C  0.24962844  0.84910876  0.71073696     0.18700
C2547       C  0.26919766  0.90611483  0.73606074     0.12700
C2548       C  0.30020873  0.87269907  0.76108858    -0.11700
H2549       H  0.28835895  0.82840193  0.75132953     0.13000
C2550       C  0.23334012  0.84220313  0.69134013    -0.22500
H2551       H  0.24276105  0.88537053  0.70413667     0.08600
C2552       C  0.27934277  0.92287151  0.71996330     0.05000
C2553       C  0.27690575  0.94662046  0.72451144    -0.19700
C2554       C  0.26426570  0.95395266  0.74461818    -0.12000
C2555       C  0.25522623  0.93706314  0.76137109     0.13700
C2556       C  0.25771702  0.91343554  0.75679145    -0.22400
C2557       C  0.29228146  0.91568694  0.69777320    -0.05500
H2558       H  0.28371617  0.95949130  0.71160643     0.15200
C2559       C  0.24272903  0.94325738  0.78423050    -0.15700
H2560       H  0.25008049  0.90056821  0.76924376     0.09500
H2561       H  0.23882572  0.85118858  0.67428633     0.07400
H2562       H  0.21525579  0.84741947  0.69605541     0.08600
H2563       H  0.23346002  0.82336433  0.68805052     0.07600
H2564       H  0.29163134  0.88230548  0.77565958     0.02500
H2565       H  0.31321760  0.88426462  0.75157745     0.03000
H2566       H  0.30965059  0.85786312  0.76927826     0.06500
H2567       H  0.29951266  0.93091102  0.68734221     0.05500
H2568       H  0.28032156  0.90612795  0.68614620    -0.00300
H2569       H  0.30700524  0.90430375  0.70275880     0.01200
H2570       H  0.22441764  0.93673307  0.78407893     0.04800
H2571       H  0.24249539  0.96215602  0.78713533     0.06800
H2572       H  0.25166410  0.93500946  0.79961902     0.07700
C2573       C  0.63919688  0.74898435  0.73577652    -0.22000
C2574       C  0.62676652  0.76408866  0.75044572     0.10000
C2575       C  0.63889774  0.77683935  0.76737316     0.10400
C2576       C  0.66313596  0.77426140  0.76920866    -0.16900
C2577       C  0.67585258  0.75932727  0.75443421    -0.27300
C2578       C  0.66358514  0.74651087  0.73741120     0.18700
C2579       C  0.60089320  0.76520651  0.74870055     0.12700
C2580       C  0.62635206  0.79353954  0.78321382    -0.11700
H2581       H  0.67229678  0.78445918  0.78204277     0.13000
C2582       C  0.67580832  0.72976767  0.72138080    -0.22500
H2583       H  0.62967782  0.73897357  0.72304900     0.08600
C2584       C  0.58991283  0.77651508  0.72931449     0.05000
C2585       C  0.56548063  0.77461133  0.72723746    -0.19700
C2586       C  0.55189161  0.76183094  0.74427750    -0.12000
C2587       C  0.56275296  0.75250116  0.76482875     0.13700
C2588       C  0.58709722  0.75393018  0.76654287    -0.22400
C2589       C  0.60402667  0.79023636  0.71069918    -0.05500
H2590       H  0.55718697  0.78192898  0.71158602     0.15200
C2591       C  0.54916813  0.74074325  0.78522735    -0.15700
H2592       H  0.59544373  0.74577568  0.78175257     0.09500
H2593       H  0.68817978  0.73926267  0.70898120     0.07400
H2594       H  0.66326324  0.72022604  0.71033828     0.08600
H2595       H  0.68539030  0.71681377  0.73232720     0.07600
H2596       H  0.61320815  0.78409619  0.79478095     0.02500
H2597       H  0.61744193  0.80681828  0.77205342     0.03000
H2598       H  0.63857020  0.80263583  0.79498400     0.06500
H2599       H  0.59272670  0.79833489  0.69701055     0.05500
H2600       H  0.61651699  0.77873623  0.70152518    -0.00300
H2601       H  0.61388019  0.80426649  0.71933613     0.01200
H2602       H  0.55409750  0.72220621  0.78676071     0.04800
H2603       H  0.53000431  0.74180953  0.78315717     0.06800
H2604       H  0.55336125  0.74929099  0.80211763     0.07700
C2605       C  0.76016098  0.61966474  0.79990290    -0.22000
C2606       C  0.77249654  0.60484922  0.78492465     0.10000
C2607       C  0.78245727  0.61360262  0.76320988     0.10400
C2608       C  0.77979800  0.63699498  0.75692982    -0.16900
C2609       C  0.76678209  0.65187186  0.77134282    -0.27300
C2610       C  0.75693303  0.64313166  0.79332852     0.18700
C2611       C  0.77235096  0.57963522  0.79021633     0.12700
C2612       C  0.79499761  0.59806792  0.74603387    -0.11700
H2613       H  0.78759596  0.64363776  0.74024677     0.13000
C2614       C  0.74188775  0.65728899  0.80966987    -0.22500
H2615       H  0.75215207  0.61262257  0.81631577     0.08600
C2616       C  0.79247906  0.56810265  0.79810795     0.05000
C2617       C  0.79392706  0.54399554  0.79573022    -0.19700
C2618       C  0.77553138  0.53149374  0.78592612    -0.12000
C2619       C  0.75431410  0.54270013  0.78091279     0.13700
C2620       C  0.75306620  0.56675688  0.78290856    -0.22400
C2621       C  0.81253421  0.58135221  0.80833673    -0.05500
H2622       H  0.80988588  0.53511205  0.80023987     0.15200
C2623       C  0.73288739  0.52987593  0.77301422    -0.15700
H2624       H  0.73743235  0.57568286  0.77737580     0.09500
H2625       H  0.75065257  0.65912245  0.82698874     0.07400
H2626       H  0.72483726  0.64825174  0.81296830     0.08600
H2627       H  0.73795965  0.67476895  0.80234567     0.07600
H2628       H  0.78300305  0.58404008  0.74055507     0.02500
H2629       H  0.81042276  0.59021053  0.75453485     0.03000
H2630       H  0.80123414  0.60776241  0.72964351     0.06500
H2631       H  0.82690221  0.56964931  0.81365886     0.05500
H2632       H  0.80631661  0.59045865  0.82440420    -0.00300
H2633       H  0.81971640  0.59437093  0.79509154     0.01200
H2634       H  0.71809649  0.53317546  0.78556350     0.04800
H2635       H  0.73526209  0.51084613  0.77275063     0.06800
H2636       H  0.72822237  0.53614300  0.75484182     0.07700
C2637       C  0.77475180  0.74637543  0.62000840    -0.22000
C2638       C  0.77012275  0.76954170  0.61419814     0.10000
C2639       C  0.75999743  0.78385516  0.63145713     0.10400
C2640       C  0.75519123  0.77467115  0.65455511    -0.16900
C2641       C  0.76032898  0.75150493  0.66070030    -0.27300
C2642       C  0.77008199  0.73708903  0.64299257     0.18700
C2643       C  0.77401782  0.77754360  0.58917814     0.12700
C2644       C  0.75420647  0.80872247  0.62544210    -0.11700
H2645       H  0.74784632  0.78577995  0.66797958     0.13000
C2646       C  0.77517992  0.71175552  0.64772477    -0.22500
H2647       H  0.78200266  0.73547652  0.60633079     0.08600
C2648       C  0.79536011  0.78767571  0.58084710     0.05000
C2649       C  0.79793511  0.79455922  0.55662799    -0.19700
C2650       C  0.77984813  0.79073043  0.54071861    -0.12000
C2651       C  0.75911435  0.77911102  0.54895855     0.13700
C2652       C  0.75631529  0.77314802  0.57316180    -0.22400
C2653       C  0.81528733  0.79107173  0.59748360    -0.05500
H2654       H  0.81384638  0.80323876  0.55018878     0.15200
C2655       C  0.73976572  0.77215633  0.53267962    -0.15700
H2656       H  0.74031947  0.76455508  0.57956193     0.09500
H2657       H  0.78975018  0.70985839  0.66030110     0.07400
H2658       H  0.78057103  0.70295916  0.63116069     0.08600
H2659       H  0.75930220  0.70266882  0.65513782     0.07600
H2660       H  0.74151856  0.80942792  0.61076680     0.02500
H2661       H  0.77030849  0.81842453  0.61968394     0.03000
H2662       H  0.74637184  0.81749812  0.64101577     0.06500
H2663       H  0.83075603  0.79913003  0.58806802     0.05500
H2664       H  0.82054121  0.77402469  0.60523616    -0.00300
H2665       H  0.80985775  0.80248817  0.61213609     0.01200
H2666       H  0.73634689  0.75321240  0.53492658     0.04800
H2667       H  0.74402319  0.77558782  0.51352417     0.06800
H2668       H  0.72358767  0.78155579  0.53743141     0.07700
C2669       C  0.77916793  0.71379535  0.87804317    -0.22000
C2670       C  0.76373371  0.72462074  0.89377601     0.10000
C2671       C  0.74658263  0.73955357  0.88464367     0.10400
C2672       C  0.74500424  0.74307686  0.85992436    -0.16900
C2673       C  0.76049452  0.73250345  0.84378502    -0.27300
C2674       C  0.77789503  0.71753274  0.85314881     0.18700
C2675       C  0.76717254  0.72239251  0.91984210     0.12700
C2676       C  0.73042178  0.75250988  0.90103656    -0.11700
H2677       H  0.73173826  0.75467966  0.85328173     0.13000
C2678       C  0.79540482  0.70557221  0.83739785    -0.22500
H2679       H  0.79256829  0.70272269  0.88536497     0.08600
C2680       C  0.75263698  0.70808334  0.93483928     0.05000
C2681       C  0.75300640  0.71078547  0.95965944    -0.19700
C2682       C  0.76781686  0.72726331  0.96967469    -0.12000
C2683       C  0.78393480  0.73997030  0.95466469     0.13700
C2684       C  0.78334436  0.73735763  0.92991188    -0.22400
C2685       C  0.73650114  0.69034506  0.92459809    -0.05500
H2686       H  0.74081422  0.70088893  0.97111004     0.15200
C2687       C  0.80175025  0.75642201  0.96446170    -0.15700
H2688       H  0.79473013  0.74795308  0.91821278     0.09500
H2689       H  0.80746344  0.69458856  0.84794560     0.07400
H2690       H  0.80624129  0.71866305  0.82713436     0.08600
H2691       H  0.78621187  0.69410581  0.82501874     0.07600
H2692       H  0.74080084  0.76365178  0.91275863     0.02500
H2693       H  0.71970932  0.74012290  0.91228343     0.03000
H2694       H  0.71831923  0.76383495  0.89093804     0.06500
H2695       H  0.72642419  0.68052858  0.93882801     0.05500
H2696       H  0.74690829  0.67778617  0.91430575    -0.00300
H2697       H  0.72390314  0.69888126  0.91254623     0.01200
H2698       H  0.81249251  0.74720372  0.97784307     0.04800
H2699       H  0.79313359  0.77132630  0.97279276     0.06800
H2700       H  0.81377987  0.76359594  0.95019319     0.07700
C2701       C  0.74926146  0.86839575  0.72808707    -0.22000
C2702       C  0.72688641  0.87422279  0.72042543     0.10000
C2703       C  0.70991123  0.85666403  0.71773315     0.10400
C2704       C  0.71549691  0.83360138  0.72372015    -0.16900
C2705       C  0.73759151  0.82795157  0.73237323    -0.27300
C2706       C  0.75481577  0.84544443  0.73424193     0.18700
C2707       C  0.72154186  0.89908943  0.71710049     0.12700
C2708       C  0.68590879  0.86234633  0.70901307    -0.11700
H2709       H  0.70235124  0.82003541  0.72244645     0.13000
C2710       C  0.77896196  0.84058287  0.74314763    -0.22500
H2711       H  0.76225058  0.88200238  0.73003450     0.08600
C2712       C  0.71387541  0.91218822  0.73658436     0.05000
C2713       C  0.71345543  0.93643387  0.73412789    -0.19700
C2714       C  0.72105091  0.94775832  0.71283511    -0.12000
C2715       C  0.72710038  0.93458732  0.69281826     0.13700
C2716       C  0.72723488  0.91028604  0.69518049    -0.22400
C2717       C  0.70745728  0.90066041  0.76035715    -0.05500
H2718       H  0.70886760  0.94663419  0.74942935     0.15200
C2719       C  0.73365867  0.94614945  0.66911196    -0.15700
H2720       H  0.73290472  0.90003858  0.68027503     0.09500
H2721       H  0.78194388  0.85044005  0.75953477     0.07400
H2722       H  0.79213812  0.84621362  0.72926406     0.08600
H2723       H  0.78178224  0.82194698  0.74742556     0.07600
H2724       H  0.68735299  0.87068801  0.69092392     0.02500
H2725       H  0.67715016  0.87440126  0.72129633     0.03000
H2726       H  0.67474855  0.84654239  0.70798348     0.06500
H2727       H  0.70205401  0.91349688  0.77372127     0.05500
H2728       H  0.72267592  0.89111526  0.76740467    -0.00300
H2729       H  0.69271273  0.88829595  0.75830129     0.01200
H2730       H  0.73708113  0.93323326  0.65519573     0.04800
H2731       H  0.74969039  0.95690417  0.67065586     0.06800
H2732       H  0.71914975  0.95733836  0.66309304     0.07700
C2733       C  0.86709154  0.73394364  0.71840164    -0.22000
C2734       C  0.88059913  0.72837834  0.73821306     0.10000
C2735       C  0.86940382  0.72161637  0.76012115     0.10400
C2736       C  0.84488944  0.71997806  0.76149368    -0.16900
C2737       C  0.83138422  0.72459611  0.74137497    -0.27300
C2738       C  0.84263526  0.73203455  0.71962980     0.18700
C2739       C  0.90645222  0.72961061  0.73561366     0.12700
C2740       C  0.88332928  0.71550183  0.78185776    -0.11700
H2741       H  0.83626110  0.71436068  0.77812613     0.13000
C2742       C  0.82897685  0.73845670  0.69776414    -0.22500
H2743       H  0.87579824  0.73954558  0.70180789     0.08600
C2744       C  0.91923793  0.71258939  0.72344037     0.05000
C2745       C  0.94380622  0.71349684  0.72324994    -0.19700
C2746       C  0.95574394  0.73083129  0.73525503    -0.12000
C2747       C  0.94285281  0.74848134  0.74642514     0.13700
C2748       C  0.91840763  0.74771938  0.74628692    -0.22400
C2749       C  0.90698326  0.69283711  0.71174309    -0.05500
H2750       H  0.95368499  0.69978632  0.71508930     0.15200
C2751       C  0.95433547  0.76825262  0.75891844    -0.15700
H2752       H  0.90855966  0.76101457  0.75519865     0.09500
H2753       H  0.81981406  0.72295095  0.69119367     0.07400
H2754       H  0.84050685  0.74540009  0.68296077     0.08600
H2755       H  0.81607023  0.75200428  0.70211612     0.07600
H2756       H  0.89363540  0.73081330  0.78722580     0.02500
H2757       H  0.89537014  0.70111056  0.77783323     0.03000
H2758       H  0.87187092  0.70987393  0.79725988     0.06500
H2759       H  0.91958404  0.68064404  0.70372423     0.05500
H2760       H  0.89578860  0.69967383  0.69731340    -0.00300
H2761       H  0.89596511  0.68298701  0.72518978     0.01200
H2762       H  0.94840327  0.78498655  0.75098796     0.04800
H2763       H  0.97365414  0.76816133  0.75724755     0.06800
H2764       H  0.94929250  0.76739432  0.77816830     0.07700
loop_ 
_geom_bond_atom_site_label_1 
_geom_bond_atom_site_label_2 
_geom_bond_distance 
_geom_bond_site_symmetry_2 
_ccdc_geom_bond_type 
O1           Ni7   1.913       .  S
O1           C22   1.266       .  A
O2          Ni25   1.903       .  S
O2           C11   1.268       .  A
O3           Ni7   1.896       .  S
O3          Ni25   1.903       .  S
O3          Ni19   1.910       .  S
O3           H26   0.966       .  S
C4           O21   1.275       .  A
C4           O13   1.278       .  A
C4         C2705   1.465       .  S
O5          Ni24   1.939       .  S
O5           C11   1.277       .  A
O6          Ni24   1.905       .  S
O6            C8   1.270       .  A
Ni7          O10   1.908       .  S
Ni7          O12   1.906       .  S
C8           O18   1.276       .  A
C8         C2577   1.495       .  S
O9          Ni25   1.926       .  S
O9           C15   1.276       .  A
O10          C15   1.275       .  A
C11        C2673   1.498       .  S
O12          C14   1.267       .  A
O13         Ni24   1.931       .  S
C14          O20   1.273       .  A
C14        C2737   1.481       .  S
C15        C2609   1.479       .  S
H16          O17   0.966       .  S
O17         Ni25   1.904       .  S
O17         Ni19   1.901       .  S
O17         Ni24   1.892       .  S
O18         Ni19   1.943       .  S
Ni19         O23   1.914       .  S
Ni19         O21   1.909       .  S
O20         Ni25   1.933       .  S
C22          O23   1.271       .  A
C22        C2641   1.482       .  S
O27         Ni33   1.928       .  S
O27          C48   1.272       .  A
O28         Ni51   1.926       .  S
O28          C37   1.274       .  A
O29         Ni33   1.893       .  S
O29         Ni51   1.900       .  S
O29         Ni45   1.913       .  S
O29          H52   0.966       .  S
C30          O47   1.279       .  A
C30          O39   1.275       .  A
C30        C2545   1.487       .  S
O31         Ni50   1.915       .  S
O31          C37   1.267       .  A
O32         Ni50   1.902       .  S
O32          C34   1.266       .  A
Ni33         O36   1.925       .  S
Ni33         O38   1.912       .  S
C34          O44   1.274       .  A
C34        C2481   1.478       .  S
O35         Ni51   1.940       .  S
O35          C41   1.286       .  A
O36          C41   1.278       .  A
C37        C2385   1.480       .  S
O38          C40   1.270       .  A
O39         Ni50   1.918       .  S
C40          O46   1.275       .  A
C40        C2513   1.489       .  S
C41        C2417   1.499       .  S
H42          O43   0.966       .  S
O43         Ni51   1.929       .  S
O43         Ni45   1.910       .  S
O43         Ni50   1.902       .  S
O44         Ni45   1.940       .  S
Ni45         O49   1.916       .  S
Ni45         O47   1.936       .  S
O46         Ni51   1.940       .  S
C48          O49   1.271       .  A
C48        C2449   1.490       .  S
N53          C57   1.362       .  A
N53          C54   1.361       .  A
N53        C2353   1.450       .  S
C54        C2650   1.475       .  S
C54          C55   1.382       .  A
C55          C56   1.367       .  A
C55          H58   1.082       .  S
C56          C57   1.381       .  A
C56          H59   1.082       .  S
C57        C2321   1.482       .  S
N60          C64   1.361       .  A
N60          C61   1.358   1_655  A
N60        C2289   1.446       .  S
C61        C2394   1.476       .  S
C61          C62   1.380       .  A
C62          C63   1.370   1_455  A
C62          H65   1.082       .  S
C63          C64   1.382       .  A
C63          H66   1.082       .  S
C64        C2746   1.479       .  S
N67          C71   1.356   1_455  A
N67          C68   1.359       .  A
N67        C2257   1.446       .  S
C68        C2202   1.479       .  S
C68          C69   1.381       .  A
C69          C70   1.374   1_455  A
C69          H72   1.082       .  S
C70          C71   1.381       .  A
C70          H73   1.082       .  S
C71        C2225   1.474       .  S
O74         Ni82   1.940       .  S
O74          C84   1.286       .  A
O75         Ni82   1.936       .  S
O75          C85   1.285       .  A
O76         Ni82   1.916       .  S
O76          C86   1.280       .  A
O77         Ni82   1.918   1_655  S
O77          C87   1.279       .  A
O78         Ni83   1.939   1_655  S
O78          C87   1.285       .  A
O79         Ni83   1.943       .  S
O79          C86   1.287       .  A
O80         Ni83   1.911       .  S
O80          C85   1.279       .  A
O81         Ni83   1.911       .  S
O81          C84   1.279       .  A
Ni82        Ni83   2.387       .  S
C84        C2266   1.491       .  S
C85        C2298   1.481       .  S
C86        C2161   1.493       .  S
C87        C2362   1.483       .  S
N88          C92   1.364       .  A
N88          C89   1.363       .  A
N88        C2170   1.449       .  S
C89        C2490   1.486       .  S
C89          C90   1.383       .  A
C90          C91   1.369       .  A
C90          H93   1.082       .  S
C91          C92   1.380       .  A
C91          H94   1.082       .  S
C92        C2138   1.482       .  S
O95        Ni101   1.929       .  S
O95         C116   1.272       .  A
O96        Ni119   1.895       .  S
O96         C105   1.267       .  A
O97        Ni101   1.903       .  S
O97        Ni119   1.898       .  S
O97        Ni113   1.907       .  S
O97         H120   0.964       .  S
C98         O115   1.273       .  A
C98         O107   1.279       .  A
C98        C2065   1.486       .  S
O99        Ni118   1.949       .  S
O99         C105   1.278       .  A
O100       Ni118   1.910       .  S
O100        C102   1.272       .  A
Ni101       O104   1.921       .  S
Ni101       O106   1.911       .  S
C102        O112   1.278       .  A
C102       C2010   1.491       .  S
O103       Ni119   1.927       .  S
O103        C109   1.275       .  A
O104        C109   1.277       .  A
C105       C2033   1.472       .  S
O106        C108   1.267       .  A
O107       Ni118   1.945       .  S
C108        O114   1.276       .  A
C108       C2129   1.506       .  S
C109       C2097   1.492       .  S
H110        O111   0.966       .  S
O111       Ni119   1.906       .  S
O111       Ni113   1.898       .  S
O111       Ni118   1.901       .  S
O112       Ni113   1.952       .  S
Ni113       O117   1.906       .  S
Ni113       O115   1.899       .  S
O114       Ni119   1.939       .  S
C116        O117   1.269       .  A
C116       C2193   1.480       .  S
O121       Ni127   1.937       .  S
O121        C142   1.277       .  A
O122       Ni145   1.905       .  S
O122        C131   1.267       .  A
O123       Ni127   1.897       .  S
O123       Ni145   1.898       .  S
O123       Ni139   1.903       .  S
O123        H146   0.966       .  S
C124        O141   1.273       .  A
C124        O133   1.277       .  A
C124       C1969   1.476       .  S
O125       Ni144   1.926       .  S
O125        C131   1.273       .  A
O126       Ni144   1.904       .  S
O126        C128   1.268       .  A
Ni127       O130   1.926       .  S
Ni127       O132   1.911       .  S
C128        O138   1.275       .  A
C128       C2330   1.480       .  S
O129       Ni145   1.913       .  S
O129        C135   1.276       .  A
O130        C135   1.278       .  A
C131       C2234   1.493       .  S
O132        C134   1.270       .  A
O133       Ni144   1.920       .  S
C134        O140   1.271       .  A
C134       C1873   1.475       .  S
C135       C1937   1.469       .  S
H136        O137   0.966       .  S
O137       Ni145   1.914       .  S
O137       Ni139   1.901       .  S
O137       Ni144   1.898       .  S
O138       Ni139   1.934       .  S
Ni139       O143   1.908       .  S
Ni139       O141   1.913       .  S
O140       Ni145   1.925       .  S
C142        O143   1.268       .  A
C142       C1905   1.496       .  S
N147        C151   1.359   1_554  A
N147        C148   1.355       .  A
N147       C1850   1.441       .  S
C148       C1882   1.479       .  S
C148        C149   1.381       .  A
C149        C150   1.373       .  A
C149        H152   1.082       .  S
C150        C151   1.384   1_554  A
C150        H153   1.082   1_554  S
C151       C2682   1.484       .  S
N154        C158   1.355       .  A
N154        C155   1.351       .  A
N154       C1809   1.439       .  S
C155       C2618   1.473       .  S
C155        C156   1.381       .  A
C156        C157   1.375       .  A
C156        H159   1.082       .  S
C157        C158   1.382       .  A
C157        H160   1.082       .  S
C158       C1777   1.473       .  S
N161        C165   1.354       .  A
N161        C162   1.355   1_554  A
N161       C1745   1.438       .  S
C162       C1713   1.476       .  S
C162        C163   1.382   1_556  A
C163        C164   1.372       .  A
C163        H166   1.082   1_554  S
C164        C165   1.382       .  A
C164        H167   1.082       .  S
C165       C1690   1.476       .  S
O168       Ni176   1.917       .  S
O168        C178   1.280       .  A
O169       Ni176   1.913   1_556  S
O169        C179   1.280       .  A
O170       Ni176   1.927       .  S
O170        C180   1.283       .  A
O171       Ni176   1.924       .  S
O171        C181   1.282       .  A
O172       Ni177   1.916       .  S
O172        C181   1.280       .  A
O173       Ni177   1.921       .  S
O173        C180   1.280       .  A
O174       Ni177   1.927   1_556  S
O174        C179   1.283       .  A
O175       Ni177   1.923       .  S
O175        C178   1.282       .  A
Ni176      Ni177   2.391       .  S
C178       C1658   1.475       .  S
C179       C1818   1.479       .  S
C180       C1754   1.478       .  S
C181       C1841   1.474       .  S
N182        C186   1.355       .  A
N182        C183   1.357       .  A
N182       C1649   1.441       .  S
C183       C1946   1.476       .  S
C183        C184   1.380       .  A
C184        C185   1.373       .  A
C184        H187   1.082       .  S
C185        C186   1.383       .  A
C185        H188   1.082       .  S
C186       C1617   1.478       .  S
O189       Ni195   1.927       .  S
O189        C210   1.271       .  A
O190       Ni213   1.896       .  S
O190        C199   1.264       .  A
O191       Ni195   1.909       .  S
O191       Ni213   1.901       .  S
O191       Ni207   1.905       .  S
O191        H214   0.966       .  S
C192        O209   1.272       .  A
C192        O201   1.275       .  A
C192       C1521   1.480       .  S
O193       Ni212   1.935       .  S
O193        C199   1.275       .  A
O194       Ni212   1.906       .  S
O194        C196   1.268       .  A
Ni195       O198   1.923       .  S
Ni195       O200   1.910       .  S
C196        O206   1.273       .  A
C196       C1585   1.477       .  S
O197       Ni213   1.908       .  S
O197        C203   1.270       .  A
O198        C203   1.276       .  A
C199       C1626   1.492       .  S
O200        C202   1.269       .  A
O201       Ni212   1.931       .  S
C202        O208   1.273       .  A
C202       C1553   1.501       .  S
C203       C1681   1.478       .  S
H204        O205   0.966       .  S
O205       Ni213   1.904       .  S
O205       Ni207   1.907       .  S
O205       Ni212   1.907       .  S
O206       Ni207   1.939       .  S
Ni207       O211   1.902       .  S
Ni207       O209   1.899       .  S
O208       Ni213   1.935       .  S
C210        O211   1.266       .  A
C210       C1489   1.470       .  S
O215       Ni221   1.946       .  S
O215        C236   1.276       .  A
O216       Ni239   1.905       .  S
O216        C225   1.266       .  A
O217       Ni221   1.905       .  S
O217       Ni239   1.892       .  S
O217       Ni233   1.895       .  S
O217        H240   0.966       .  S
C218        O235   1.263       .  A
C218        O227   1.268       .  A
C218       C1370   1.494       .  S
O219       Ni238   1.905       .  S
O219        C225   1.267       .  A
O220       Ni238   1.896       .  S
O220        C222   1.272       .  A
Ni221       O224   1.939       .  S
Ni221       O226   1.908       .  S
C222        O232   1.277       .  A
C222       C1393   1.475       .  S
O223       Ni239   1.908       .  S
O223        C229   1.272       .  A
O224        C229   1.277       .  A
C225       C1457   1.464       .  S
O226        C228   1.270       .  A
O227       Ni238   1.926       .  S
C228        O234   1.275       .  A
C228       C1722   1.481       .  S
C229       C1786   1.476       .  S
H230        O231   0.966       .  S
O231       Ni239   1.942       .  S
O231       Ni233   1.908       .  S
O231       Ni238   1.918       .  S
O232       Ni233   1.940       .  S
Ni233       O237   1.878       .  S
Ni233       O235   1.912       .  S
O234       Ni239   1.935       .  S
C236        O237   1.262       .  A
C236       C1434   1.489       .  S
N241        C245   1.357   1_565  A
N241        C242   1.355       .  A
N241       C1329   1.440       .  S
C242       C2714   1.477       .  S
C242        C243   1.382       .  A
C243        C244   1.374   1_565  A
C243        H246   1.082       .  S
C244        C245   1.382       .  A
C244        H247   1.082       .  S
C245       C1361   1.481       .  S
N248        C252   1.358       .  A
N248        C249   1.357       .  A
N248       C1297   1.439       .  S
C249       C2586   1.485       .  S
C249        C250   1.384       .  A
C250        C251   1.374       .  A
C250        H253   1.082       .  S
C251        C252   1.382       .  A
C251        H254   1.082       .  S
C252       C2458   1.485       .  S
N255        C259   1.360   1_565  A
N255        C256   1.361       .  A
N255       C1265   1.444       .  S
C256       C2554   1.487       .  S
C256        C257   1.383       .  A
C257        C258   1.373   1_565  A
C257        H260   1.082       .  S
C258        C259   1.381       .  A
C258        H261   1.082       .  S
C259       C1242   1.483       .  S
O262       Ni270   1.920       .  S
O262        C272   1.281       .  A
O263       Ni270   1.920       .  S
O263        C273   1.282       .  A
O264       Ni270   1.912       .  S
O264        C274   1.280       .  A
O265       Ni270   1.913   1_545  S
O265        C275   1.280       .  A
O266       Ni271   1.918   1_545  S
O266        C275   1.281       .  A
O267       Ni271   1.918       .  S
O267        C274   1.280       .  A
O268       Ni271   1.926       .  S
O268        C273   1.283       .  A
O269       Ni271   1.921       .  S
O269        C272   1.282       .  A
Ni270      Ni271   2.390       .  S
C272       C1338   1.478       .  S
C273       C1274   1.483       .  S
C274       C1306   1.469       .  S
C275       C1201   1.474       .  S
N276        C280   1.351       .  A
N276        C277   1.354       .  A
N276       C1210   1.440       .  S
C277       C1425   1.474       .  S
C277        C278   1.383       .  A
C278        C279   1.372       .  A
C278        H281   1.082       .  S
C279        C280   1.380       .  A
C279        H282   1.082       .  S
C280       C1169   1.468       .  S
O283       Ni289   1.919       .  S
O283        C304   1.270       .  A
O284       Ni307   1.889       .  S
O284        C293   1.266       .  A
O285       Ni289   1.890       .  S
O285       Ni307   1.887       .  S
O285       Ni301   1.907       .  S
O285        H308   0.966       .  S
C286        O303   1.275       .  A
C286        O295   1.279       .  A
C286       C1137   1.484       .  S
O287       Ni306   1.942       .  S
O287        C293   1.278       .  A
O288       Ni306   1.916       .  S
O288        C290   1.273       .  A
Ni289       O292   1.916       .  S
Ni289       O294   1.913       .  S
C290        O300   1.276       .  A
C290       C1105   1.493       .  S
O291       Ni307   1.935       .  S
O291        C297   1.278       .  A
O292        C297   1.276       .  A
C293       C1050   1.476       .  S
O294        C296   1.267       .  A
O295       Ni306   1.929       .  S
C296        O302   1.275       .  A
C296       C1233   1.504       .  S
C297       C1082   1.487       .  S
H298        O299   0.966       .  S
O299       Ni307   1.906       .  S
O299       Ni301   1.900       .  S
O299       Ni306   1.895       .  S
O300       Ni301   1.948       .  S
Ni301       O305   1.908       .  S
Ni301       O303   1.910       .  S
O302       Ni307   1.943       .  S
C304        O305   1.269       .  A
C304       C1178   1.461       .  S
N309        C313   1.362   1_556  A
N309        C310   1.365       .  A
N309       C1009   1.446       .  S
C310       C2522   1.488       .  S
C310        C311   1.381       .  A
C311        C312   1.370   1_556  A
C311        H314   1.082       .  S
C312        C313   1.382       .  A
C312        H315   1.082       .  S
C313       C2001   1.487       .  S
N316        C320   1.362       .  A
N316        C317   1.361       .  A
N316        C977   1.441       .  S
C317       C2426   1.488       .  S
C317        C318   1.381       .  A
C318        C319   1.375       .  A
C318        H321   1.082       .  S
C319        C320   1.383       .  A
C319        H322   1.082       .  S
C320       C1114   1.492       .  S
N323        C327   1.358       .  A
N323        C324   1.358   1_554  A
N323        C945   1.446       .  S
C324       C1146   1.476       .  S
C324        C325   1.382   1_556  A
C325        C326   1.370       .  A
C325        H328   1.082   1_554  S
C326        C327   1.380       .  A
C326        H329   1.082       .  S
C327        C913   1.474       .  S
O330       Ni338   1.935       .  S
O330        C340   1.284       .  A
O331       Ni338   1.932       .  S
O331        C341   1.285       .  A
O332       Ni338   1.908       .  S
O332        C342   1.278       .  A
O333       Ni338   1.915   1_556  S
O333        C343   1.279       .  A
O334       Ni339   1.930   1_556  S
O334        C343   1.284       .  A
O335       Ni339   1.930       .  S
O335        C342   1.284       .  A
O336       Ni339   1.912       .  S
O336        C341   1.279       .  A
O337       Ni339   1.915       .  S
O337        C340   1.280       .  A
Ni338      Ni339   2.389       .  S
C340       C1018   1.484       .  S
C341        C954   1.482       .  S
C342        C890   1.475       .  S
C343        C986   1.483       .  S
N344        C348   1.354       .  A
N344        C345   1.355       .  A
N344        C881   1.440       .  S
C345       C2074   1.477       .  S
C345        C346   1.381       .  A
C346        C347   1.377       .  A
C346        H349   1.082       .  S
C347        C348   1.382       .  A
C347        H350   1.082       .  S
C348        C858   1.478       .  S
N351        C355   1.360       .  A
N351        C352   1.360       .  A
N351        C817   1.444       .  S
C352       C1914   1.483       .  S
C352        C353   1.381       .  A
C353        C354   1.371       .  A
C353        H356   1.082       .  S
C354        C355   1.381       .  A
C354        H357   1.082       .  S
C355       C2042   1.480       .  S
N358        C362   1.354   1_565  A
N358        C359   1.349       .  A
N358        C785   1.440       .  S
C359       C1978   1.468       .  S
C359        C360   1.380       .  A
C360        C361   1.375       .  A
C360        H363   1.082       .  S
C361        C362   1.383   1_565  A
C361        H364   1.082   1_565  S
C362       C1498   1.474       .  S
N365        C369   1.361   1_565  A
N365        C366   1.362       .  A
N365        C753   1.442       .  S
C366       C2106   1.485       .  S
C366        C367   1.381       .  A
C367        C368   1.371   1_565  A
C367        H370   1.082       .  S
C368        C369   1.382       .  A
C368        H371   1.082       .  S
C369        C721   1.488       .  S
O372       Ni380   1.918   1_565  S
O372        C382   1.281       .  A
O373       Ni380   1.922       .  S
O373        C383   1.282       .  A
O374       Ni380   1.917       .  S
O374        C384   1.280       .  A
O375       Ni380   1.917       .  S
O375        C385   1.281       .  A
O376       Ni381   1.918       .  S
O376        C385   1.280       .  A
O377       Ni381   1.913       .  S
O377        C384   1.280       .  A
O378       Ni381   1.929       .  S
O378        C383   1.283       .  A
O379       Ni381   1.926   1_565  S
O379        C382   1.283       .  A
Ni380      Ni381   2.389       .  S
C382        C826   1.484       .  S
C383        C698   1.484       .  S
C384        C762   1.473       .  S
C385        C794   1.472   1_545  S
N386        C390   1.362       .  A
N386        C387   1.361       .  A
N386        C689   1.444       .  S
C387        C657   1.485       .  S
C387        C388   1.382       .  A
C388        C389   1.371       .  A
C388        H391   1.082       .  S
C389        C390   1.382       .  A
C389        H392   1.082       .  S
C390       C1562   1.486       .  S
N393        C397   1.353       .  A
N393        C394   1.356       .  A
N393        C625   1.448       .  S
C394       C1530   1.469       .  S
C394        C395   1.383       .  A
C395        C396   1.370       .  A
C395        H398   1.082       .  S
C396        C397   1.379       .  A
C396        H399   1.082       .  S
C397       C1402   1.464       .  S
N400        C404   1.357   1_655  A
N400        C401   1.359       .  A
N400        C593   1.446       .  S
C401       C1466   1.473       .  S
C401        C402   1.381       .  A
C402        C403   1.367   1_655  A
C402        H405   1.082       .  S
C403        C404   1.381       .  A
C403        H406   1.082       .  S
C404       C1041   1.473       .  S
N407        C411   1.360   1_655  A
N407        C408   1.358       .  A
N407        C570   1.445       .  S
C408       C1594   1.481       .  S
C408        C409   1.381       .  A
C409        C410   1.373       .  A
C409        H412   1.082       .  S
C410        C411   1.382   1_655  A
C410        H413   1.082   1_655  S
C411        C529   1.480       .  S
O414       Ni422   1.925       .  S
O414        C424   1.282       .  A
O415       Ni422   1.925       .  S
O415        C425   1.283       .  A
O416       Ni422   1.922       .  S
O416        C426   1.282       .  A
O417       Ni422   1.920   1_455  S
O417        C427   1.281       .  A
O418       Ni423   1.926   1_455  S
O418        C427   1.283       .  A
O419       Ni423   1.928       .  S
O419        C426   1.283       .  A
O420       Ni423   1.918       .  S
O420        C425   1.280       .  A
O421       Ni423   1.920       .  S
O421        C424   1.281       .  A
Ni422      Ni423   2.388       .  S
C424        C561   1.478       .  S
C425        C602   1.480       .  S
C426        C634   1.486       .  S
C427        C506   1.483       .  S
N428        C432   1.355       .  A
N428        C429   1.358       .  A
N428        C497   1.443       .  S
C429        C465   1.479       .  S
C429        C430   1.384       .  A
C430        C431   1.374       .  A
C430        H433   1.082       .  S
C431        C432   1.380       .  A
C431        H434   1.082       .  S
C432       C1073   1.477       .  S
O435       Ni441   1.941       .  S
O435        C456   1.278       .  A
O436       Ni459   1.919       .  S
O436        C445   1.270       .  A
O437       Ni441   1.902       .  S
O437       Ni459   1.905       .  S
O437       Ni453   1.912       .  S
O437        H460   0.966       .  S
C438        O455   1.278       .  A
C438        O447   1.274       .  A
C438        C666   1.500       .  S
O439       Ni458   1.925       .  S
O439        C445   1.271       .  A
O440       Ni458   1.901       .  S
O440        C442   1.268       .  A
Ni441       O444   1.935       .  S
Ni441       O446   1.903       .  S
C442        O452   1.274       .  A
C442        C922   1.484       .  S
O443       Ni459   1.914       .  S
O443        C449   1.274       .  A
O444        C449   1.277       .  A
C445        C849   1.492       .  S
O446        C448   1.269       .  A
O447       Ni458   1.921       .  S
C448        O454   1.274       .  A
C448        C474   1.477       .  S
C449        C538   1.472       .  S
H450        O451   0.966       .  S
O451       Ni459   1.919       .  S
O451       Ni453   1.907       .  S
O451       Ni458   1.904       .  S
O452       Ni453   1.929       .  S
Ni453       O457   1.915       .  S
Ni453       O455   1.932       .  S
O454       Ni459   1.934       .  S
C456        O457   1.272       .  A
C456        C730   1.505       .  S
C461        C462   1.397       .  A
C461        C466   1.397       .  A
C461        H471   1.085       .  S
C462        C467   1.478       .  S
C462        C463   1.411       .  A
C463        C464   1.408       .  A
C463        C468   1.505       .  S
C464        C465   1.404       .  A
C464        H469   1.084       .  S
C465        C466   1.418       .  A
C466        C470   1.509       .  S
C467        C472   1.411       .  A
C467        C476   1.401       .  A
C468        H484   1.110       .  S
C468        H485   1.110       .  S
C468        H486   1.111       .  S
C470        H481   1.110       .  S
C470        H482   1.111       .  S
C470        H483   1.107       .  S
C472        C473   1.401       .  A
C472        C477   1.507       .  S
C473        C474   1.402       .  A
C473        H478   1.084       .  S
C474        C475   1.418       .  A
C475        C476   1.405       .  A
C475        C479   1.508       .  S
C476        H480   1.084       .  S
C477        H487   1.111       .  S
C477        H488   1.110       .  S
C477        H489   1.109       .  S
C479        H490   1.109       .  S
C479        H491   1.110       .  S
C479        H492   1.111       .  S
C493        C494   1.403       .  A
C493        C498   1.407       .  A
C493        H503   1.084       .  S
C494        C499   1.485       .  S
C494        C495   1.410       .  A
C495        C496   1.401       .  A
C495        C500   1.507       .  S
C496        C497   1.403       .  A
C496        H501   1.082       .  S
C497        C498   1.415       .  A
C498        C502   1.504       .  S
C499        C504   1.411       .  A
C499        C508   1.401       .  A
C500        H516   1.110       .  S
C500        H517   1.109       .  S
C500        H518   1.111       .  S
C502        H513   1.110       .  S
C502        H514   1.110       .  S
C502        H515   1.105       .  S
C504        C505   1.406       .  A
C504        C509   1.507       .  S
C505        C506   1.405       .  A
C505        H510   1.084       .  S
C506        C507   1.420       .  A
C507        C508   1.405       .  A
C507        C511   1.509       .  S
C508        H512   1.085       .  S
C509        H519   1.111       .  S
C509        H520   1.110       .  S
C509        H521   1.109       .  S
C511        H522   1.110       .  S
C511        H523   1.106       .  S
C511        H524   1.111       .  S
C525        C526   1.403       .  A
C525        C530   1.404       .  A
C525        H535   1.084       .  S
C526        C531   1.483       .  S
C526        C527   1.410       .  A
C527        C528   1.403       .  A
C527        C532   1.506       .  S
C528        C529   1.405       .  A
C528        H533   1.084       .  S
C529        C530   1.415       .  A
C530        C534   1.507       .  S
C531        C536   1.410       .  A
C531        C540   1.405       .  A
C532        H548   1.109       .  S
C532        H549   1.110       .  S
C532        H550   1.111       .  S
C534        H545   1.110       .  S
C534        H546   1.110       .  S
C534        H547   1.105       .  S
C536        C537   1.403       .  A
C536        C541   1.506       .  S
C537        C538   1.404       .  A
C537        H542   1.084       .  S
C538        C539   1.412       .  A
C539        C540   1.405       .  A
C539        C543   1.506       .  S
C540        H544   1.084       .  S
C541        H551   1.111       .  S
C541        H552   1.109       .  S
C541        H553   1.110       .  S
C543        H554   1.110       .  S
C543        H555   1.108       .  S
C543        H556   1.110       .  S
C557        C558   1.402       .  A
C557        C562   1.404       .  A
C557        H567   1.085       .  S
C558        C563   1.484       .  S
C558        C559   1.411   1_655  A
C559        C560   1.407       .  A
C559        C564   1.506       .  S
C560        C561   1.405   1_455  A
C560        H565   1.084       .  S
C561        C562   1.415       .  A
C562        C566   1.508       .  S
C563        C568   1.410       .  A
C563        C572   1.401   1_655  A
C564        H580   1.110       .  S
C564        H581   1.110       .  S
C564        H582   1.111       .  S
C566        H577   1.111       .  S
C566        H578   1.110       .  S
C566        H579   1.108       .  S
C568        C569   1.404       .  A
C568        C573   1.506       .  S
C569        C570   1.404       .  A
C569        H574   1.083       .  S
C570        C571   1.417       .  A
C571        C572   1.404   1_655  A
C571        C575   1.506   1_655  S
C572        H576   1.084       .  S
C573        H583   1.111       .  S
C573        H584   1.110       .  S
C573        H585   1.110       .  S
C575        H586   1.111   1_455  S
C575        H587   1.106       .  S
C575        H588   1.110       .  S
C589        C590   1.403       .  A
C589        C594   1.408       .  A
C589        H599   1.084       .  S
C590        C595   1.485       .  S
C590        C591   1.411   1_655  A
C591        C592   1.402       .  A
C591        C596   1.508       .  S
C592        C593   1.405   1_455  A
C592        H597   1.083       .  S
C593        C594   1.416       .  A
C594        C598   1.503       .  S
C595        C600   1.413       .  A
C595        C604   1.402   1_655  A
C596        H612   1.110       .  S
C596        H613   1.108   1_455  S
C596        H614   1.111       .  S
C598        H609   1.110       .  S
C598        H610   1.110       .  S
C598        H611   1.107       .  S
C600        C601   1.406       .  A
C600        C605   1.508       .  S
C601        C602   1.403       .  A
C601        H606   1.084       .  S
C602        C603   1.416   1_655  A
C603        C604   1.407       .  A
C603        C607   1.507       .  S
C604        H608   1.084       .  S
C605        H615   1.111       .  S
C605        H616   1.110       .  S
C605        H617   1.108       .  S
C607        H618   1.110       .  S
C607        H619   1.109       .  S
C607        H620   1.111       .  S
C621        C622   1.403       .  A
C621        C626   1.408       .  A
C621        H631   1.084       .  S
C622        C627   1.488       .  S
C622        C623   1.411       .  A
C623        C624   1.403       .  A
C623        C628   1.507       .  S
C624        C625   1.404       .  A
C624        H629   1.082       .  S
C625        C626   1.417       .  A
C626        C630   1.504       .  S
C627        C632   1.412       .  A
C627        C636   1.402       .  A
C628        H644   1.110       .  S
C628        H645   1.109       .  S
C628        H646   1.111       .  S
C630        H641   1.111       .  S
C630        H642   1.110       .  S
C630        H643   1.106       .  S
C632        C633   1.407       .  A
C632        C637   1.507       .  S
C633        C634   1.405       .  A
C633        H638   1.084       .  S
C634        C635   1.417       .  A
C635        C636   1.408       .  A
C635        C639   1.507       .  S
C636        H640   1.084       .  S
C637        H647   1.111       .  S
C637        H648   1.110       .  S
C637        H649   1.110       .  S
C639        H650   1.109       .  S
C639        H651   1.111       .  S
C639        H652   1.111       .  S
C653        C654   1.401       .  A
C653        C658   1.405       .  A
C653        H663   1.084       .  S
C654        C659   1.490       .  S
C654        C655   1.414       .  A
C655        C656   1.409       .  A
C655        C660   1.506       .  S
C656        C657   1.404       .  A
C656        H661   1.084       .  S
C657        C658   1.417       .  A
C658        C662   1.507       .  S
C659        C664   1.409       .  A
C659        C668   1.400       .  A
C660        H676   1.110       .  S
C660        H677   1.110       .  S
C660        H678   1.111       .  S
C662        H673   1.110       .  S
C662        H674   1.110       .  S
C662        H675   1.109       .  S
C664        C665   1.409       .  A
C664        C669   1.505       .  S
C665        C666   1.410       .  A
C665        H670   1.083       .  S
C666        C667   1.425       .  A
C667        C668   1.407       .  A
C667        C671   1.509       .  S
C668        H672   1.084       .  S
C669        H679   1.111       .  S
C669        H680   1.110       .  S
C669        H681   1.110       .  S
C671        H682   1.110       .  S
C671        H683   1.110       .  S
C671        H684   1.111       .  S
C685        C686   1.404       .  A
C685        C690   1.407       .  A
C685        H695   1.084       .  S
C686        C691   1.492       .  S
C686        C687   1.414       .  A
C687        C688   1.406       .  A
C687        C692   1.506       .  S
C688        C689   1.402       .  A
C688        H693   1.084       .  S
C689        C690   1.414       .  A
C690        C694   1.504       .  S
C691        C696   1.413       .  A
C691        C700   1.404       .  A
C692        H708   1.109       .  S
C692        H709   1.110       .  S
C692        H710   1.111       .  S
C694        H705   1.110       .  S
C694        H706   1.110       .  S
C694        H707   1.107       .  S
C696        C697   1.408       .  A
C696        C701   1.506       .  S
C697        C698   1.405       .  A
C697        H702   1.084       .  S
C698        C699   1.417       .  A
C699        C700   1.407       .  A
C699        C703   1.507       .  S
C700        H704   1.084       .  S
C701        H711   1.111       .  S
C701        H712   1.109       .  S
C701        H713   1.110       .  S
C703        H714   1.110       .  S
C703        H715   1.107       .  S
C703        H716   1.110       .  S
C717        C718   1.404       .  A
C717        C722   1.409       .  A
C717        H727   1.084       .  S
C718        C723   1.490       .  S
C718        C719   1.411       .  A
C719        C720   1.404       .  A
C719        C724   1.507       .  S
C720        C721   1.405       .  A
C720        H725   1.084       .  S
C721        C722   1.415       .  A
C722        C726   1.505       .  S
C723        C728   1.409       .  A
C723        C732   1.403       .  A
C724        H740   1.110       .  S
C724        H741   1.110       .  S
C724        H742   1.111       .  S
C726        H737   1.111       .  S
C726        H738   1.107       .  S
C726        H739   1.110       .  S
C728        C729   1.401       .  A
C728        C733   1.509       .  S
C729        C730   1.411       .  A
C729        H734   1.083       .  S
C730        C731   1.425       .  A
C731        C732   1.414       .  A
C731        C735   1.507       .  S
C732        H736   1.084       .  S
C733        H743   1.111       .  S
C733        H744   1.110       .  S
C733        H745   1.110       .  S
C735        H746   1.111       .  S
C735        H747   1.110       .  S
C735        H748   1.109       .  S
C749        C750   1.400       .  A
C749        C754   1.402       .  A
C749        H759   1.084       .  S
C750        C755   1.479       .  S
C750        C751   1.410   1_565  A
C751        C752   1.402       .  A
C751        C756   1.506       .  S
C752        C753   1.404   1_545  A
C752        H757   1.083       .  S
C753        C754   1.416       .  A
C754        C758   1.505       .  S
C755        C760   1.411   1_565  A
C755        C764   1.400       .  A
C756        H772   1.110       .  S
C756        H773   1.110       .  S
C756        H774   1.111       .  S
C758        H769   1.111       .  S
C758        H770   1.110       .  S
C758        H771   1.107       .  S
C760        C761   1.403       .  A
C760        C765   1.507       .  S
C761        C762   1.402       .  A
C761        H766   1.084       .  S
C762        C763   1.415   1_545  A
C763        C764   1.403       .  A
C763        C767   1.508       .  S
C764        H768   1.084       .  S
C765        H775   1.111       .  S
C765        H776   1.110       .  S
C765        H777   1.110       .  S
C767        H778   1.111       .  S
C767        H779   1.111       .  S
C767        H780   1.109       .  S
C781        C782   1.401   1_545  A
C781        C786   1.400   1_545  A
C781        H791   1.085       .  S
C782        C787   1.481       .  S
C782        C783   1.410       .  A
C783        C784   1.405       .  A
C783        C788   1.505       .  S
C784        C785   1.404       .  A
C784        H789   1.082       .  S
C785        C786   1.414       .  A
C786        C790   1.506   1_565  S
C787        C792   1.412       .  A
C787        C796   1.402   1_565  A
C788        H804   1.110   1_565  S
C788        H805   1.110       .  S
C788        H806   1.111       .  S
C790        H801   1.111   1_545  S
C790        H802   1.110       .  S
C790        H803   1.105   1_545  S
C792        C793   1.402       .  A
C792        C797   1.507       .  S
C793        C794   1.402       .  A
C793        H798   1.085       .  S
C794        C795   1.415   1_565  A
C795        C796   1.404       .  A
C795        C799   1.507       .  S
C796        H800   1.084       .  S
C797        H807   1.111       .  S
C797        H808   1.109       .  S
C797        H809   1.111       .  S
C799        H810   1.110       .  S
C799        H811   1.107       .  S
C799        H812   1.110       .  S
C813        C814   1.401       .  A
C813        C818   1.403       .  A
C813        H823   1.084       .  S
C814        C819   1.486       .  S
C814        C815   1.412       .  A
C815        C816   1.406       .  A
C815        C820   1.505       .  S
C816        C817   1.405       .  A
C816        H821   1.083       .  S
C817        C818   1.415       .  A
C818        C822   1.505       .  S
C819        C824   1.410       .  A
C819        C828   1.403       .  A
C820        H836   1.110       .  S
C820        H837   1.111       .  S
C820        H838   1.111       .  S
C822        H833   1.110       .  S
C822        H834   1.110       .  S
C822        H835   1.107       .  S
C824        C825   1.405       .  A
C824        C829   1.506       .  S
C825        C826   1.406       .  A
C825        H830   1.084       .  S
C826        C827   1.416       .  A
C827        C828   1.408       .  A
C827        C831   1.507       .  S
C828        H832   1.084       .  S
C829        H839   1.111       .  S
C829        H840   1.110       .  S
C829        H841   1.110       .  S
C831        H842   1.111       .  S
C831        H843   1.111       .  S
C831        H844   1.109       .  S
C845        C846   1.403       .  A
C845        C850   1.408       .  A
C845        H855   1.084       .  S
C846        C851   1.482       .  S
C846        C847   1.408       .  A
C847        C848   1.402       .  A
C847        C852   1.509       .  S
C848        C849   1.410       .  A
C848        H853   1.084       .  S
C849        C850   1.417       .  A
C850        C854   1.507       .  S
C851        C856   1.413       .  A
C851        C860   1.399       .  A
C852        H868   1.110       .  S
C852        H869   1.108       .  S
C852        H870   1.111       .  S
C854        H865   1.111       .  S
C854        H866   1.111       .  S
C854        H867   1.110       .  S
C856        C857   1.408       .  A
C856        C861   1.506       .  S
C857        C858   1.402       .  A
C857        H862   1.084       .  S
C858        C859   1.414       .  A
C859        C860   1.400       .  A
C859        C863   1.507       .  S
C860        H864   1.084       .  S
C861        H871   1.111       .  S
C861        H872   1.110       .  S
C861        H873   1.108       .  S
C863        H874   1.111       .  S
C863        H875   1.109       .  S
C863        H876   1.106       .  S
C877        C878   1.400       .  A
C877        C882   1.400       .  A
C877        H887   1.085       .  S
C878        C883   1.482       .  S
C878        C879   1.411       .  A
C879        C880   1.407       .  A
C879        C884   1.505       .  S
C880        C881   1.404       .  A
C880        H885   1.082       .  S
C881        C882   1.414       .  A
C882        C886   1.506       .  S
C883        C888   1.411       .  A
C883        C892   1.402       .  A
C884        H900   1.110       .  S
C884        H901   1.110       .  S
C884        H902   1.111       .  S
C886        H897   1.110       .  S
C886        H898   1.110       .  S
C886        H899   1.107       .  S
C888        C889   1.404       .  A
C888        C893   1.507       .  S
C889        C890   1.405       .  A
C889        H894   1.085       .  S
C890        C891   1.415       .  A
C891        C892   1.404       .  A
C891        C895   1.508       .  S
C892        H896   1.085       .  S
C893        H903   1.111       .  S
C893        H904   1.110       .  S
C893        H905   1.110       .  S
C895        H906   1.111       .  S
C895        H907   1.107       .  S
C895        H908   1.110       .  S
C909        C910   1.403       .  A
C909        C914   1.404       .  A
C909        H919   1.084       .  S
C910        C915   1.479       .  S
C910        C911   1.410       .  A
C911        C912   1.398       .  A
C911        C916   1.508       .  S
C912        C913   1.402       .  A
C912        H917   1.084       .  S
C913        C914   1.415       .  A
C914        C918   1.507       .  S
C915        C920   1.407       .  A
C915        C924   1.403       .  A
C916        H932   1.109       .  S
C916        H933   1.110       .  S
C916        H934   1.111       .  S
C918        H929   1.110       .  S
C918        H930   1.110       .  S
C918        H931   1.106       .  S
C920        C921   1.402       .  A
C920        C925   1.507       .  S
C921        C922   1.411       .  A
C921        H926   1.084       .  S
C922        C923   1.415       .  A
C923        C924   1.403       .  A
C923        C927   1.507       .  S
C924        H928   1.084       .  S
C925        H935   1.111       .  S
C925        H936   1.109       .  S
C925        H937   1.110       .  S
C927        H938   1.111       .  S
C927        H939   1.111       .  S
C927        H940   1.109       .  S
C941        C942   1.401       .  A
C941        C946   1.404       .  A
C941        H951   1.085       .  S
C942        C947   1.484       .  S
C942        C943   1.411   1_554  A
C943        C944   1.405   1_556  A
C943        C948   1.506       .  S
C944        C945   1.405       .  A
C944        H949   1.083   1_554  S
C945        C946   1.417       .  A
C946        C950   1.505       .  S
C947        C952   1.411       .  A
C947        C956   1.401   1_554  A
C948        H964   1.110       .  S
C948        H965   1.108       .  S
C948        H966   1.111       .  S
C950        H961   1.110       .  S
C950        H962   1.110       .  S
C950        H963   1.106       .  S
C952        C953   1.407       .  A
C952        C957   1.507       .  S
C953        C954   1.405       .  A
C953        H958   1.084       .  S
C954        C955   1.419   1_554  A
C955        C956   1.404       .  A
C955        C959   1.508       .  S
C956        H960   1.085       .  S
C957        H967   1.111       .  S
C957        H968   1.110       .  S
C957        H969   1.108       .  S
C959        H970   1.110       .  S
C959        H971   1.106       .  S
C959        H972   1.111       .  S
C973        C974   1.404       .  A
C973        C978   1.405       .  A
C973        H983   1.084       .  S
C974        C979   1.490       .  S
C974        C975   1.414       .  A
C975        C976   1.404       .  A
C975        C980   1.507       .  S
C976        C977   1.401       .  A
C976        H981   1.082       .  S
C977        C978   1.413       .  A
C978        C982   1.504       .  S
C979        C984   1.413       .  A
C979        C988   1.404       .  A
C980        H996   1.109       .  S
C980        H997   1.110       .  S
C980        H998   1.111       .  S
C982        H993   1.110       .  S
C982        H994   1.110       .  S
C982        H995   1.108       .  S
C984        C985   1.405       .  A
C984        C989   1.507       .  S
C985        C986   1.403       .  A
C985        H990   1.083       .  S
C986        C987   1.416       .  A
C987        C988   1.407       .  A
C987        C991   1.508       .  S
C988        H992   1.084       .  S
C989        H999   1.111       .  S
C989       H1000   1.109       .  S
C989       H1001   1.111       .  S
C991       H1002   1.111       .  S
C991       H1003   1.110       .  S
C991       H1004   1.109       .  S
C1005      C1006   1.402   1_556  A
C1005      C1010   1.406       .  A
C1005      H1015   1.084       .  S
C1006      C1011   1.491       .  S
C1006      C1007   1.413       .  A
C1007      C1008   1.408       .  A
C1007      C1012   1.506       .  S
C1008      C1009   1.405   1_554  A
C1008      H1013   1.084       .  S
C1009      C1010   1.416       .  A
C1010      C1014   1.505       .  S
C1011      C1016   1.414       .  A
C1011      C1020   1.400   1_554  A
C1012      H1028   1.110       .  S
C1012      H1029   1.110       .  S
C1012      H1030   1.111       .  S
C1014      H1025   1.110       .  S
C1014      H1026   1.110       .  S
C1014      H1027   1.107       .  S
C1016      C1017   1.411       .  A
C1016      C1021   1.506       .  S
C1017      C1018   1.406       .  A
C1017      H1022   1.084       .  S
C1018      C1019   1.418   1_554  A
C1019      C1020   1.404       .  A
C1019      C1023   1.509       .  S
C1020      H1024   1.085       .  S
C1021      H1031   1.111       .  S
C1021      H1032   1.110       .  S
C1021      H1033   1.111       .  S
C1023      H1034   1.106       .  S
C1023      H1035   1.111       .  S
C1023      H1036   1.110       .  S
C1037      C1038   1.398       .  A
C1037      C1042   1.398       .  A
C1037      H1047   1.084       .  S
C1038      C1043   1.474       .  S
C1038      C1039   1.411       .  A
C1039      C1040   1.402       .  A
C1039      C1044   1.506       .  S
C1040      C1041   1.402       .  A
C1040      H1045   1.084       .  S
C1041      C1042   1.413       .  A
C1042      C1046   1.507       .  S
C1043      C1048   1.411       .  A
C1043      C1052   1.398       .  A
C1044      H1060   1.110       .  S
C1044      H1061   1.110       .  S
C1044      H1062   1.111       .  S
C1046      H1057   1.110       .  S
C1046      H1058   1.110       .  S
C1046      H1059   1.109       .  S
C1048      C1049   1.400       .  A
C1048      C1053   1.508       .  S
C1049      C1050   1.402       .  A
C1049      H1054   1.084       .  S
C1050      C1051   1.417       .  A
C1051      C1052   1.403       .  A
C1051      C1055   1.505       .  S
C1052      H1056   1.084       .  S
C1053      H1063   1.111       .  S
C1053      H1064   1.110       .  S
C1053      H1065   1.110       .  S
C1055      H1066   1.109       .  S
C1055      H1067   1.110       .  S
C1055      H1068   1.111       .  S
C1069      C1070   1.403       .  A
C1069      C1074   1.401       .  A
C1069      H1079   1.084       .  S
C1070      C1075   1.488       .  S
C1070      C1071   1.415       .  A
C1071      C1072   1.406       .  A
C1071      C1076   1.507       .  S
C1072      C1073   1.402       .  A
C1072      H1077   1.083       .  S
C1073      C1074   1.413       .  A
C1074      C1078   1.508       .  S
C1075      C1080   1.413       .  A
C1075      C1084   1.401       .  A
C1076      H1092   1.108       .  S
C1076      H1093   1.110       .  S
C1076      H1094   1.111       .  S
C1078      H1089   1.110       .  S
C1078      H1090   1.110       .  S
C1078      H1091   1.107       .  S
C1080      C1081   1.408       .  A
C1080      C1085   1.506       .  S
C1081      C1082   1.407       .  A
C1081      H1086   1.082       .  S
C1082      C1083   1.418       .  A
C1083      C1084   1.401       .  A
C1083      C1087   1.509       .  S
C1084      H1088   1.084       .  S
C1085      H1095   1.111       .  S
C1085      H1096   1.108       .  S
C1085      H1097   1.110       .  S
C1087      H1098   1.111       .  S
C1087      H1099   1.109       .  S
C1087      H1100   1.111       .  S
C1101      C1102   1.401       .  A
C1101      C1106   1.410       .  A
C1101      H1111   1.084       .  S
C1102      C1107   1.495       .  S
C1102      C1103   1.413       .  A
C1103      C1104   1.408       .  A
C1103      C1108   1.507       .  S
C1104      C1105   1.405       .  A
C1104      H1109   1.084       .  S
C1105      C1106   1.425       .  A
C1106      C1110   1.509       .  S
C1107      C1112   1.414       .  A
C1107      C1116   1.401       .  A
C1108      H1124   1.110       .  S
C1108      H1125   1.108       .  S
C1108      H1126   1.111       .  S
C1110      H1121   1.111       .  S
C1110      H1122   1.110       .  S
C1110      H1123   1.102       .  S
C1112      C1113   1.410       .  A
C1112      C1117   1.506       .  S
C1113      C1114   1.404       .  A
C1113      H1118   1.081       .  S
C1114      C1115   1.419       .  A
C1115      C1116   1.407       .  A
C1115      C1119   1.507       .  S
C1116      H1120   1.084       .  S
C1117      H1127   1.111       .  S
C1117      H1128   1.110       .  S
C1117      H1129   1.108       .  S
C1119      H1130   1.110       .  S
C1119      H1131   1.109       .  S
C1119      H1132   1.110       .  S
C1133      C1134   1.403       .  A
C1133      C1138   1.406       .  A
C1133      H1143   1.084       .  S
C1134      C1139   1.475       .  S
C1134      C1135   1.405       .  A
C1135      C1136   1.398       .  A
C1135      C1140   1.507       .  S
C1136      C1137   1.409       .  A
C1136      H1141   1.084       .  S
C1137      C1138   1.417       .  A
C1138      C1142   1.507       .  S
C1139      C1144   1.409       .  A
C1139      C1148   1.401       .  A
C1140      H1156   1.110       .  S
C1140      H1157   1.109       .  S
C1140      H1158   1.111       .  S
C1142      H1153   1.111       .  S
C1142      H1154   1.110       .  S
C1142      H1155   1.110       .  S
C1144      C1145   1.397       .  A
C1144      C1149   1.508       .  S
C1145      C1146   1.402       .  A
C1145      H1150   1.085       .  S
C1146      C1147   1.415       .  A
C1147      C1148   1.405       .  A
C1147      C1151   1.506       .  S
C1148      H1152   1.084       .  S
C1149      H1159   1.111       .  S
C1149      H1160   1.110       .  S
C1149      H1161   1.109       .  S
C1151      H1162   1.110       .  S
C1151      H1163   1.106       .  S
C1151      H1164   1.110       .  S
C1165      C1166   1.403       .  A
C1165      C1170   1.401       .  A
C1165      H1175   1.084       .  S
C1166      C1171   1.472       .  S
C1166      C1167   1.407       .  A
C1167      C1168   1.399       .  A
C1167      C1172   1.506       .  S
C1168      C1169   1.402       .  A
C1168      H1173   1.084       .  S
C1169      C1170   1.409       .  A
C1170      C1174   1.506       .  S
C1171      C1176   1.413       .  A
C1171      C1180   1.398       .  A
C1172      H1188   1.110       .  S
C1172      H1189   1.110       .  S
C1172      H1190   1.111       .  S
C1174      H1185   1.111       .  S
C1174      H1186   1.108       .  S
C1174      H1187   1.110       .  S
C1176      C1177   1.400       .  A
C1176      C1181   1.508       .  S
C1177      C1178   1.398       .  A
C1177      H1182   1.084       .  S
C1178      C1179   1.415       .  A
C1179      C1180   1.400       .  A
C1179      C1183   1.508       .  S
C1180      H1184   1.084       .  S
C1181      H1191   1.111       .  S
C1181      H1192   1.110       .  S
C1181      H1193   1.110       .  S
C1183      H1194   1.110       .  S
C1183      H1195   1.109       .  S
C1183      H1196   1.111       .  S
C1197      C1198   1.400       .  A
C1197      C1202   1.401       .  A
C1197      H1207   1.085       .  S
C1198      C1203   1.481       .  S
C1198      C1199   1.413       .  A
C1199      C1200   1.404       .  A
C1199      C1204   1.507       .  S
C1200      C1201   1.404       .  A
C1200      H1205   1.084       .  S
C1201      C1202   1.417       .  A
C1202      C1206   1.509       .  S
C1203      C1208   1.412       .  A
C1203      C1212   1.400       .  A
C1204      H1220   1.109       .  S
C1204      H1221   1.110       .  S
C1204      H1222   1.111       .  S
C1206      H1217   1.110       .  S
C1206      H1218   1.111       .  S
C1206      H1219   1.106       .  S
C1208      C1209   1.404       .  A
C1208      C1213   1.506       .  S
C1209      C1210   1.403       .  A
C1209      H1214   1.083       .  S
C1210      C1211   1.414       .  A
C1211      C1212   1.400       .  A
C1211      C1215   1.505       .  S
C1212      H1216   1.085       .  S
C1213      H1223   1.111       .  S
C1213      H1224   1.109       .  S
C1213      H1225   1.110       .  S
C1215      H1226   1.111       .  S
C1215      H1227   1.110       .  S
C1215      H1228   1.106       .  S
C1229      C1230   1.397       .  A
C1229      C1234   1.407       .  A
C1229      H1239   1.084       .  S
C1230      C1235   1.492       .  S
C1230      C1231   1.412       .  A
C1231      C1232   1.410       .  A
C1231      C1236   1.506       .  S
C1232      C1233   1.410       .  A
C1232      H1237   1.083       .  S
C1233      C1234   1.428       .  A
C1234      C1238   1.509       .  S
C1235      C1240   1.413       .  A
C1235      C1244   1.404       .  A
C1236      H1252   1.110       .  S
C1236      H1253   1.110       .  S
C1236      H1254   1.111       .  S
C1238      H1249   1.109       .  S
C1238      H1250   1.111       .  S
C1238      H1251   1.110       .  S
C1240      C1241   1.406       .  A
C1240      C1245   1.507       .  S
C1241      C1242   1.403       .  A
C1241      H1246   1.084       .  S
C1242      C1243   1.413       .  A
C1243      C1244   1.410       .  A
C1243      C1247   1.505       .  S
C1244      H1248   1.084       .  S
C1245      H1255   1.111       .  S
C1245      H1256   1.110       .  S
C1245      H1257   1.111       .  S
C1247      H1258   1.109       .  S
C1247      H1259   1.111       .  S
C1247      H1260   1.111       .  S
C1261      C1262   1.402       .  A
C1261      C1266   1.403       .  A
C1261      H1271   1.084       .  S
C1262      C1267   1.491       .  S
C1262      C1263   1.414   1_565  A
C1263      C1264   1.409       .  A
C1263      C1268   1.506       .  S
C1264      C1265   1.404   1_545  A
C1264      H1269   1.083       .  S
C1265      C1266   1.414       .  A
C1266      C1270   1.505       .  S
C1267      C1272   1.413   1_565  A
C1267      C1276   1.405       .  A
C1268      H1284   1.110   1_545  S
C1268      H1285   1.110       .  S
C1268      H1286   1.111       .  S
C1270      H1281   1.110       .  S
C1270      H1282   1.110       .  S
C1270      H1283   1.107       .  S
C1272      C1273   1.404       .  A
C1272      C1277   1.507       .  S
C1273      C1274   1.404   1_545  A
C1273      H1278   1.084       .  S
C1274      C1275   1.418       .  A
C1275      C1276   1.408       .  A
C1275      C1279   1.508       .  S
C1276      H1280   1.084       .  S
C1277      H1287   1.111       .  S
C1277      H1288   1.109       .  S
C1277      H1289   1.110       .  S
C1279      H1290   1.111       .  S
C1279      H1291   1.107       .  S
C1279      H1292   1.110       .  S
C1293      C1294   1.400       .  A
C1293      C1298   1.400       .  A
C1293      H1303   1.085       .  S
C1294      C1299   1.481       .  S
C1294      C1295   1.412       .  A
C1295      C1296   1.405       .  A
C1295      C1300   1.506       .  S
C1296      C1297   1.402       .  A
C1296      H1301   1.083       .  S
C1297      C1298   1.414       .  A
C1298      C1302   1.505       .  S
C1299      C1304   1.411       .  A
C1299      C1308   1.402       .  A
C1300      H1316   1.110       .  S
C1300      H1317   1.110       .  S
C1300      H1318   1.111       .  S
C1302      H1313   1.110       .  S
C1302      H1314   1.110       .  S
C1302      H1315   1.107       .  S
C1304      C1305   1.403       .  A
C1304      C1309   1.507       .  S
C1305      C1306   1.403       .  A
C1305      H1310   1.085       .  S
C1306      C1307   1.413       .  A
C1307      C1308   1.402       .  A
C1307      C1311   1.508       .  S
C1308      H1312   1.084       .  S
C1309      H1319   1.111       .  S
C1309      H1320   1.110       .  S
C1309      H1321   1.111       .  S
C1311      H1322   1.110       .  S
C1311      H1323   1.108       .  S
C1311      H1324   1.110       .  S
C1325      C1326   1.403       .  A
C1325      C1330   1.403       .  A
C1325      H1335   1.084       .  S
C1326      C1331   1.485       .  S
C1326      C1327   1.412       .  A
C1327      C1328   1.403       .  A
C1327      C1332   1.506       .  S
C1328      C1329   1.403       .  A
C1328      H1333   1.083       .  S
C1329      C1330   1.412       .  A
C1330      C1334   1.504       .  S
C1331      C1336   1.412       .  A
C1331      C1340   1.402   1_565  A
C1332      H1348   1.109       .  S
C1332      H1349   1.110       .  S
C1332      H1350   1.111       .  S
C1334      H1345   1.110       .  S
C1334      H1346   1.110   1_565  S
C1334      H1347   1.108       .  S
C1336      C1337   1.405       .  A
C1336      C1341   1.507       .  S
C1337      C1338   1.404       .  A
C1337      H1342   1.084       .  S
C1338      C1339   1.417   1_565  A
C1339      C1340   1.404       .  A
C1339      C1343   1.508       .  S
C1340      H1344   1.085       .  S
C1341      H1351   1.111       .  S
C1341      H1352   1.109       .  S
C1341      H1353   1.110       .  S
C1343      H1354   1.111       .  S
C1343      H1355   1.107       .  S
C1343      H1356   1.110       .  S
C1357      C1358   1.405       .  A
C1357      C1362   1.408       .  A
C1357      H1367   1.084       .  S
C1358      C1363   1.484       .  S
C1358      C1359   1.411       .  A
C1359      C1360   1.400       .  A
C1359      C1364   1.508       .  S
C1360      C1361   1.403       .  A
C1360      H1365   1.084       .  S
C1361      C1362   1.413       .  A
C1362      C1366   1.505       .  S
C1363      C1368   1.409       .  A
C1363      C1372   1.404       .  A
C1364      H1380   1.110       .  S
C1364      H1381   1.111       .  S
C1364      H1382   1.111       .  S
C1366      H1377   1.111       .  S
C1366      H1378   1.107       .  S
C1366      H1379   1.110       .  S
C1368      C1369   1.398       .  A
C1368      C1373   1.509       .  S
C1369      C1370   1.409       .  A
C1369      H1374   1.084       .  S
C1370      C1371   1.420       .  A
C1371      C1372   1.411       .  A
C1371      C1375   1.506       .  S
C1372      H1376   1.084       .  S
C1373      H1383   1.111       .  S
C1373      H1384   1.110       .  S
C1373      H1385   1.110       .  S
C1375      H1386   1.110       .  S
C1375      H1387   1.110       .  S
C1375      H1388   1.111       .  S
C1389      C1390   1.399       .  A
C1389      C1394   1.398       .  A
C1389      H1399   1.085       .  S
C1390      C1395   1.470       .  S
C1390      C1391   1.405       .  A
C1391      C1392   1.400       .  A
C1391      C1396   1.506       .  S
C1392      C1393   1.407       .  A
C1392      H1397   1.084       .  S
C1393      C1394   1.418       .  A
C1394      C1398   1.510       .  S
C1395      C1400   1.411       .  A
C1395      C1404   1.399       .  A
C1396      H1412   1.110       .  S
C1396      H1413   1.110       .  S
C1396      H1414   1.111       .  S
C1398      H1409   1.110       .  S
C1398      H1410   1.111       .  S
C1398      H1411   1.110       .  S
C1400      C1401   1.398       .  A
C1400      C1405   1.507       .  S
C1401      C1402   1.399       .  A
C1401      H1406   1.084       .  S
C1402      C1403   1.414       .  A
C1403      C1404   1.399       .  A
C1403      C1407   1.507       .  S
C1404      H1408   1.085       .  S
C1405      H1415   1.111       .  S
C1405      H1416   1.110       .  S
C1405      H1417   1.110       .  S
C1407      H1418   1.110       .  S
C1407      H1419   1.106       .  S
C1407      H1420   1.110       .  S
C1421      C1422   1.400       .  A
C1421      C1426   1.397       .  A
C1421      H1431   1.085       .  S
C1422      C1427   1.475       .  S
C1422      C1423   1.410       .  A
C1423      C1424   1.403       .  A
C1423      C1428   1.506       .  S
C1424      C1425   1.404       .  A
C1424      H1429   1.083       .  S
C1425      C1426   1.413       .  A
C1426      C1430   1.507       .  S
C1427      C1432   1.405       .  A
C1427      C1436   1.401       .  A
C1428      H1444   1.109       .  S
C1428      H1445   1.110       .  S
C1428      H1446   1.111       .  S
C1430      H1441   1.110       .  S
C1430      H1442   1.108       .  S
C1430      H1443   1.110       .  S
C1432      C1433   1.400       .  A
C1432      C1437   1.507       .  S
C1433      C1434   1.413       .  A
C1433      H1438   1.084       .  S
C1434      C1435   1.420       .  A
C1435      C1436   1.402       .  A
C1435      C1439   1.508       .  S
C1436      H1440   1.085       .  S
C1437      H1447   1.111       .  S
C1437      H1448   1.109       .  S
C1437      H1449   1.110       .  S
C1439      H1450   1.111       .  S
C1439      H1451   1.110       .  S
C1439      H1452   1.110       .  S
C1453      C1454   1.402       .  A
C1453      C1458   1.400       .  A
C1453      H1463   1.085       .  S
C1454      C1459   1.474       .  S
C1454      C1455   1.407       .  A
C1455      C1456   1.402       .  A
C1455      C1460   1.506       .  S
C1456      C1457   1.404       .  A
C1456      H1461   1.085       .  S
C1457      C1458   1.411       .  A
C1458      C1462   1.507       .  S
C1459      C1464   1.406       .  A
C1459      C1468   1.404       .  A
C1460      H1476   1.110       .  S
C1460      H1477   1.110       .  S
C1460      H1478   1.111       .  S
C1462      H1473   1.110       .  S
C1462      H1474   1.110       .  S
C1462      H1475   1.109       .  S
C1464      C1465   1.398       .  A
C1464      C1469   1.506       .  S
C1465      C1466   1.405       .  A
C1465      H1470   1.084       .  S
C1466      C1467   1.410       .  A
C1467      C1468   1.404       .  A
C1467      C1471   1.506       .  S
C1468      H1472   1.084       .  S
C1469      H1479   1.111       .  S
C1469      H1480   1.110       .  S
C1469      H1481   1.110       .  S
C1471      H1482   1.111       .  S
C1471      H1483   1.110       .  S
C1471      H1484   1.108       .  S
C1485      C1486   1.401       .  A
C1485      C1490   1.402       .  A
C1485      H1495   1.085       .  S
C1486      C1491   1.473       .  S
C1486      C1487   1.407       .  A
C1487      C1488   1.399       .  A
C1487      C1492   1.507       .  S
C1488      C1489   1.405       .  A
C1488      H1493   1.084       .  S
C1489      C1490   1.416       .  A
C1490      C1494   1.508       .  S
C1491      C1496   1.410       .  A
C1491      C1500   1.399       .  A
C1492      H1508   1.110       .  S
C1492      H1509   1.109       .  S
C1492      H1510   1.111       .  S
C1494      H1505   1.110       .  S
C1494      H1506   1.111       .  S
C1494      H1507   1.106       .  S
C1496      C1497   1.399       .  A
C1496      C1501   1.508       .  S
C1497      C1498   1.402       .  A
C1497      H1502   1.084       .  S
C1498      C1499   1.416       .  A
C1499      C1500   1.401       .  A
C1499      C1503   1.507       .  S
C1500      H1504   1.084       .  S
C1501      H1511   1.111       .  S
C1501      H1512   1.110       .  S
C1501      H1513   1.109       .  S
C1503      H1514   1.110       .  S
C1503      H1515   1.107       .  S
C1503      H1516   1.110       .  S
C1517      C1518   1.397       .  A
C1517      C1522   1.400       .  A
C1517      H1527   1.084       .  S
C1518      C1523   1.473       .  S
C1518      C1519   1.411       .  A
C1519      C1520   1.400       .  A
C1519      C1524   1.508       .  S
C1520      C1521   1.405       .  A
C1520      H1525   1.084       .  S
C1521      C1522   1.421       .  A
C1522      C1526   1.509       .  S
C1523      C1528   1.412       .  A
C1523      C1532   1.397       .  A
C1524      H1540   1.109       .  S
C1524      H1541   1.110       .  S
C1524      H1542   1.111       .  S
C1526      H1537   1.111       .  S
C1526      H1538   1.109       .  S
C1526      H1539   1.109       .  S
C1528      C1529   1.404       .  A
C1528      C1533   1.506       .  S
C1529      C1530   1.402       .  A
C1529      H1534   1.084       .  S
C1530      C1531   1.415       .  A
C1531      C1532   1.392       .  A
C1531      C1535   1.510       .  S
C1532      H1536   1.085       .  S
C1533      H1543   1.111       .  S
C1533      H1544   1.109       .  S
C1533      H1545   1.110       .  S
C1535      H1546   1.111       .  S
C1535      H1547   1.107       .  S
C1535      H1548   1.110       .  S
C1549      C1550   1.401       .  A
C1549      C1554   1.409       .  A
C1549      H1559   1.084       .  S
C1550      C1555   1.488       .  S
C1550      C1551   1.408       .  A
C1551      C1552   1.406       .  A
C1551      C1556   1.506       .  S
C1552      C1553   1.412       .  A
C1552      H1557   1.083       .  S
C1553      C1554   1.423       .  A
C1554      C1558   1.508       .  S
C1555      C1560   1.413       .  A
C1555      C1564   1.399       .  A
C1556      H1572   1.110       .  S
C1556      H1573   1.110       .  S
C1556      H1574   1.111       .  S
C1558      H1569   1.110       .  S
C1558      H1570   1.111       .  S
C1558      H1571   1.110       .  S
C1560      C1561   1.410       .  A
C1560      C1565   1.505       .  S
C1561      C1562   1.404       .  A
C1561      H1566   1.084       .  S
C1562      C1563   1.418       .  A
C1563      C1564   1.403       .  A
C1563      C1567   1.508       .  S
C1564      H1568   1.085       .  S
C1565      H1575   1.111       .  S
C1565      H1576   1.110       .  S
C1565      H1577   1.110       .  S
C1567      H1578   1.110       .  S
C1567      H1579   1.108       .  S
C1567      H1580   1.110       .  S
C1581      C1582   1.403       .  A
C1581      C1586   1.403       .  A
C1581      H1591   1.084       .  S
C1582      C1587   1.481       .  S
C1582      C1583   1.409       .  A
C1583      C1584   1.405       .  A
C1583      C1588   1.506       .  S
C1584      C1585   1.406       .  A
C1584      H1589   1.084       .  S
C1585      C1586   1.413       .  A
C1586      C1590   1.507       .  S
C1587      C1592   1.410       .  A
C1587      C1596   1.402       .  A
C1588      H1604   1.110       .  S
C1588      H1605   1.109       .  S
C1588      H1606   1.111       .  S
C1590      H1601   1.111       .  S
C1590      H1602   1.109       .  S
C1590      H1603   1.110       .  S
C1592      C1593   1.403       .  A
C1592      C1597   1.507       .  S
C1593      C1594   1.405       .  A
C1593      H1598   1.084       .  S
C1594      C1595   1.415       .  A
C1595      C1596   1.404       .  A
C1595      C1599   1.506       .  S
C1596      H1600   1.085       .  S
C1597      H1607   1.111       .  S
C1597      H1608   1.110       .  S
C1597      H1609   1.109       .  S
C1599      H1610   1.110       .  S
C1599      H1611   1.104       .  S
C1599      H1612   1.110       .  S
C1613      C1614   1.399       .  A
C1613      C1618   1.401       .  A
C1613      H1623   1.084       .  S
C1614      C1619   1.477       .  S
C1614      C1615   1.411       .  A
C1615      C1616   1.403       .  A
C1615      C1620   1.506       .  S
C1616      C1617   1.402       .  A
C1616      H1621   1.084       .  S
C1617      C1618   1.414       .  A
C1618      C1622   1.507       .  S
C1619      C1624   1.409       .  A
C1619      C1628   1.398       .  A
C1620      H1636   1.110       .  S
C1620      H1637   1.109       .  S
C1620      H1638   1.111       .  S
C1622      H1633   1.107       .  S
C1622      H1634   1.111       .  S
C1622      H1635   1.110       .  S
C1624      C1625   1.397       .  A
C1624      C1629   1.510       .  S
C1625      C1626   1.407       .  A
C1625      H1630   1.084       .  S
C1626      C1627   1.425       .  A
C1627      C1628   1.408       .  A
C1627      C1631   1.508       .  S
C1628      H1632   1.084       .  S
C1629      H1639   1.111       .  S
C1629      H1640   1.110       .  S
C1629      H1641   1.109       .  S
C1631      H1642   1.111       .  S
C1631      H1643   1.110       .  S
C1631      H1644   1.106       .  S
C1645      C1646   1.402       .  A
C1645      C1650   1.404       .  A
C1645      H1655   1.084       .  S
C1646      C1651   1.482       .  S
C1646      C1647   1.412       .  A
C1647      C1648   1.402       .  A
C1647      C1652   1.507       .  S
C1648      C1649   1.402       .  A
C1648      H1653   1.083       .  S
C1649      C1650   1.414       .  A
C1650      C1654   1.505       .  S
C1651      C1656   1.411       .  A
C1651      C1660   1.401       .  A
C1652      H1668   1.110       .  S
C1652      H1669   1.108       .  S
C1652      H1670   1.111       .  S
C1654      H1665   1.110       .  S
C1654      H1666   1.111       .  S
C1654      H1667   1.107       .  S
C1656      C1657   1.405       .  A
C1656      C1661   1.507       .  S
C1657      C1658   1.404       .  A
C1657      H1662   1.084       .  S
C1658      C1659   1.415       .  A
C1659      C1660   1.403       .  A
C1659      C1663   1.506       .  S
C1660      H1664   1.085       .  S
C1661      H1671   1.111       .  S
C1661      H1672   1.110       .  S
C1661      H1673   1.108       .  S
C1663      H1674   1.110       .  S
C1663      H1675   1.105       .  S
C1663      H1676   1.111       .  S
C1677      C1678   1.399       .  A
C1677      C1682   1.405       .  A
C1677      H1687   1.084       .  S
C1678      C1683   1.475       .  S
C1678      C1679   1.412       .  A
C1679      C1680   1.399       .  A
C1679      C1684   1.509       .  S
C1680      C1681   1.402       .  A
C1680      H1685   1.084       .  S
C1681      C1682   1.420       .  A
C1682      C1686   1.509       .  S
C1683      C1688   1.409       .  A
C1683      C1692   1.399       .  A
C1684      H1700   1.110       .  S
C1684      H1701   1.108       .  S
C1684      H1702   1.111       .  S
C1686      H1697   1.106       .  S
C1686      H1698   1.111       .  S
C1686      H1699   1.110       .  S
C1688      C1689   1.403       .  A
C1688      C1693   1.506       .  S
C1689      C1690   1.404       .  A
C1689      H1694   1.082       .  S
C1690      C1691   1.414       .  A
C1691      C1692   1.398       .  A
C1691      C1695   1.507       .  S
C1692      H1696   1.085       .  S
C1693      H1703   1.111       .  S
C1693      H1704   1.110       .  S
C1693      H1705   1.109       .  S
C1695      H1706   1.110       .  S
C1695      H1707   1.108       .  S
C1695      H1708   1.110       .  S
C1709      C1710   1.401       .  A
C1709      C1714   1.399       .  A
C1709      H1719   1.084       .  S
C1710      C1715   1.483       .  S
C1710      C1711   1.413       .  A
C1711      C1712   1.406       .  A
C1711      C1716   1.506       .  S
C1712      C1713   1.403       .  A
C1712      H1717   1.082       .  S
C1713      C1714   1.414       .  A
C1714      C1718   1.508       .  S
C1715      C1720   1.410       .  A
C1715      C1724   1.404       .  A
C1716      H1732   1.109       .  S
C1716      H1733   1.110       .  S
C1716      H1734   1.111       .  S
C1718      H1729   1.110       .  S
C1718      H1730   1.110       .  S
C1718      H1731   1.109       .  S
C1720      C1721   1.402       .  A
C1720      C1725   1.508       .  S
C1721      C1722   1.407       .  A
C1721      H1726   1.084       .  S
C1722      C1723   1.415       .  A
C1723      C1724   1.405       .  A
C1723      C1727   1.507       .  S
C1724      H1728   1.084       .  S
C1725      H1735   1.111       .  S
C1725      H1736   1.109       .  S
C1725      H1737   1.110       .  S
C1727      H1738   1.111       .  S
C1727      H1739   1.110       .  S
C1727      H1740   1.110       .  S
C1741      C1742   1.403       .  A
C1741      C1746   1.404       .  A
C1741      H1751   1.084       .  S
C1742      C1747   1.485       .  S
C1742      C1743   1.413       .  A
C1743      C1744   1.403       .  A
C1743      C1748   1.506       .  S
C1744      C1745   1.400       .  A
C1744      H1749   1.083       .  S
C1745      C1746   1.413       .  A
C1746      C1750   1.505       .  S
C1747      C1752   1.413       .  A
C1747      C1756   1.401   1_554  A
C1748      H1764   1.109       .  S
C1748      H1765   1.110       .  S
C1748      H1766   1.111       .  S
C1750      H1761   1.110       .  S
C1750      H1762   1.110       .  S
C1750      H1763   1.108       .  S
C1752      C1753   1.407       .  A
C1752      C1757   1.506       .  S
C1753      C1754   1.403       .  A
C1753      H1758   1.080       .  S
C1754      C1755   1.411   1_554  A
C1755      C1756   1.403       .  A
C1755      C1759   1.502       .  S
C1756      H1760   1.084       .  S
C1757      H1767   1.111       .  S
C1757      H1768   1.110       .  S
C1757      H1769   1.110       .  S
C1759      H1770   1.111       .  S
C1759      H1771   1.111       .  S
C1759      H1772   1.109       .  S
C1773      C1774   1.401       .  A
C1773      C1778   1.400       .  A
C1773      H1783   1.085       .  S
C1774      C1779   1.480       .  S
C1774      C1775   1.410       .  A
C1775      C1776   1.404       .  A
C1775      C1780   1.505       .  S
C1776      C1777   1.403       .  A
C1776      H1781   1.083       .  S
C1777      C1778   1.414       .  A
C1778      C1782   1.508       .  S
C1779      C1784   1.407       .  A
C1779      C1788   1.403       .  A
C1780      H1796   1.110       .  S
C1780      H1797   1.110       .  S
C1780      H1798   1.111       .  S
C1782      H1793   1.110       .  S
C1782      H1794   1.110       .  S
C1782      H1795   1.107       .  S
C1784      C1785   1.401       .  A
C1784      C1789   1.506       .  S
C1785      C1786   1.406       .  A
C1785      H1790   1.085       .  S
C1786      C1787   1.416       .  A
C1787      C1788   1.405       .  A
C1787      C1791   1.508       .  S
C1788      H1792   1.085       .  S
C1789      H1799   1.111       .  S
C1789      H1800   1.110       .  S
C1789      H1801   1.110       .  S
C1791      H1802   1.111       .  S
C1791      H1803   1.106       .  S
C1791      H1804   1.110       .  S
C1805      C1806   1.402       .  A
C1805      C1810   1.403       .  A
C1805      H1815   1.084       .  S
C1806      C1811   1.481       .  S
C1806      C1807   1.412       .  A
C1807      C1808   1.402       .  A
C1807      C1812   1.508       .  S
C1808      C1809   1.403       .  A
C1808      H1813   1.083       .  S
C1809      C1810   1.413       .  A
C1810      C1814   1.505       .  S
C1811      C1816   1.410       .  A
C1811      C1820   1.404       .  A
C1812      H1828   1.110       .  S
C1812      H1829   1.107       .  S
C1812      H1830   1.111       .  S
C1814      H1825   1.110       .  S
C1814      H1826   1.111       .  S
C1814      H1827   1.107       .  S
C1816      C1817   1.401       .  A
C1816      C1821   1.508       .  S
C1817      C1818   1.403       .  A
C1817      H1822   1.080       .  S
C1818      C1819   1.414       .  A
C1819      C1820   1.407       .  A
C1819      C1823   1.507       .  S
C1820      H1824   1.084       .  S
C1821      H1831   1.111       .  S
C1821      H1832   1.110       .  S
C1821      H1833   1.107       .  S
C1823      H1834   1.111       .  S
C1823      H1835   1.109       .  S
C1823      H1836   1.111       .  S
C1837      C1838   1.401       .  A
C1837      C1842   1.403       .  A
C1837      H1847   1.085       .  S
C1838      C1843   1.482       .  S
C1838      C1839   1.411   1_554  A
C1839      C1840   1.405       .  A
C1839      C1844   1.506       .  S
C1840      C1841   1.403   1_556  A
C1840      H1845   1.084       .  S
C1841      C1842   1.416       .  A
C1842      C1846   1.508       .  S
C1843      C1848   1.411       .  A
C1843      C1852   1.401       .  A
C1844      H1860   1.111       .  S
C1844      H1861   1.110       .  S
C1844      H1862   1.111       .  S
C1846      H1857   1.111       .  S
C1846      H1858   1.110       .  S
C1846      H1859   1.107       .  S
C1848      C1849   1.403       .  A
C1848      C1853   1.506       .  S
C1849      C1850   1.403       .  A
C1849      H1854   1.084       .  S
C1850      C1851   1.414       .  A
C1851      C1852   1.404       .  A
C1851      C1855   1.504       .  S
C1852      H1856   1.084   1_554  S
C1853      H1863   1.111       .  S
C1853      H1864   1.110       .  S
C1853      H1865   1.110       .  S
C1855      H1866   1.110       .  S
C1855      H1867   1.106       .  S
C1855      H1868   1.110   1_554  S
C1869      C1870   1.401       .  A
C1869      C1874   1.405       .  A
C1869      H1879   1.084       .  S
C1870      C1875   1.480       .  S
C1870      C1871   1.413       .  A
C1871      C1872   1.403       .  A
C1871      C1876   1.508       .  S
C1872      C1873   1.401       .  A
C1872      H1877   1.084       .  S
C1873      C1874   1.415       .  A
C1874      C1878   1.507       .  S
C1875      C1880   1.412       .  A
C1875      C1884   1.399       .  A
C1876      H1892   1.110       .  S
C1876      H1893   1.109       .  S
C1876      H1894   1.111       .  S
C1878      H1889   1.111       .  S
C1878      H1890   1.109       .  S
C1878      H1891   1.110       .  S
C1880      C1881   1.406       .  A
C1880      C1885   1.506       .  S
C1881      C1882   1.404       .  A
C1881      H1886   1.084       .  S
C1882      C1883   1.415       .  A
C1883      C1884   1.399       .  A
C1883      C1887   1.507       .  S
C1884      H1888   1.085       .  S
C1885      H1895   1.111       .  S
C1885      H1896   1.110       .  S
C1885      H1897   1.109       .  S
C1887      H1898   1.111       .  S
C1887      H1899   1.108       .  S
C1887      H1900   1.110       .  S
C1901      C1902   1.400       .  A
C1901      C1906   1.410       .  A
C1901      H1911   1.084       .  S
C1902      C1907   1.482       .  S
C1902      C1903   1.409       .  A
C1903      C1904   1.399       .  A
C1903      C1908   1.509       .  S
C1904      C1905   1.408       .  A
C1904      H1909   1.083       .  S
C1905      C1906   1.424       .  A
C1906      C1910   1.506       .  S
C1907      C1912   1.409       .  A
C1907      C1916   1.402       .  A
C1908      H1924   1.110       .  S
C1908      H1925   1.110       .  S
C1908      H1926   1.111       .  S
C1910      H1921   1.111       .  S
C1910      H1922   1.106       .  S
C1910      H1923   1.108       .  S
C1912      C1913   1.402       .  A
C1912      C1917   1.506       .  S
C1913      C1914   1.404       .  A
C1913      H1918   1.084       .  S
C1914      C1915   1.415       .  A
C1915      C1916   1.406       .  A
C1915      C1919   1.505       .  S
C1916      H1920   1.084       .  S
C1917      H1927   1.111       .  S
C1917      H1928   1.110       .  S
C1917      H1929   1.110       .  S
C1919      H1930   1.106       .  S
C1919      H1931   1.110       .  S
C1919      H1932   1.111       .  S
C1933      C1934   1.401       .  A
C1933      C1938   1.400       .  A
C1933      H1943   1.085       .  S
C1934      C1939   1.478       .  S
C1934      C1935   1.409       .  A
C1935      C1936   1.404       .  A
C1935      C1940   1.505       .  S
C1936      C1937   1.405       .  A
C1936      H1941   1.084       .  S
C1937      C1938   1.413       .  A
C1938      C1942   1.508       .  S
C1939      C1944   1.408       .  A
C1939      C1948   1.401       .  A
C1940      H1956   1.110       .  S
C1940      H1957   1.110       .  S
C1940      H1958   1.111       .  S
C1942      H1953   1.110       .  S
C1942      H1954   1.110       .  S
C1942      H1955   1.108       .  S
C1944      C1945   1.402       .  A
C1944      C1949   1.506       .  S
C1945      C1946   1.405       .  A
C1945      H1950   1.084       .  S
C1946      C1947   1.414       .  A
C1947      C1948   1.402       .  A
C1947      C1951   1.507       .  S
C1948      H1952   1.085       .  S
C1949      H1959   1.111       .  S
C1949      H1960   1.110       .  S
C1949      H1961   1.110       .  S
C1951      H1962   1.111       .  S
C1951      H1963   1.105       .  S
C1951      H1964   1.110       .  S
C1965      C1966   1.401       .  A
C1965      C1970   1.407       .  A
C1965      H1975   1.084       .  S
C1966      C1971   1.474       .  S
C1966      C1967   1.410       .  A
C1967      C1968   1.396       .  A
C1967      C1972   1.509       .  S
C1968      C1969   1.403       .  A
C1968      H1973   1.084       .  S
C1969      C1970   1.417       .  A
C1970      C1974   1.507       .  S
C1971      C1976   1.408       .  A
C1971      C1980   1.403       .  A
C1972      H1988   1.110       .  S
C1972      H1989   1.110       .  S
C1972      H1990   1.111       .  S
C1974      H1985   1.111       .  S
C1974      H1986   1.106       .  S
C1974      H1987   1.110       .  S
C1976      C1977   1.399       .  A
C1976      C1981   1.506       .  S
C1977      C1978   1.401       .  A
C1977      H1982   1.084       .  S
C1978      C1979   1.410       .  A
C1979      C1980   1.401       .  A
C1979      C1983   1.506       .  S
C1980      H1984   1.084       .  S
C1981      H1991   1.111       .  S
C1981      H1992   1.110       .  S
C1981      H1993   1.110       .  S
C1983      H1994   1.110       .  S
C1983      H1995   1.109       .  S
C1983      H1996   1.110       .  S
C1997      C1998   1.400       .  A
C1997      C2002   1.402       .  A
C1997      H2007   1.085       .  S
C1998      C2003   1.491       .  S
C1998      C1999   1.414       .  A
C1999      C2000   1.411       .  A
C1999      C2004   1.505       .  S
C2000      C2001   1.405       .  A
C2000      H2005   1.084       .  S
C2001      C2002   1.418       .  A
C2002      C2006   1.508       .  S
C2003      C2008   1.410       .  A
C2003      C2012   1.404       .  A
C2004      H2020   1.110       .  S
C2004      H2021   1.110       .  S
C2004      H2022   1.111       .  S
C2006      H2017   1.110       .  S
C2006      H2018   1.110       .  S
C2006      H2019   1.108       .  S
C2008      C2009   1.404       .  A
C2008      C2013   1.507       .  S
C2009      C2010   1.408       .  A
C2009      H2014   1.084       .  S
C2010      C2011   1.419       .  A
C2011      C2012   1.410       .  A
C2011      C2015   1.506       .  S
C2012      H2016   1.084       .  S
C2013      H2023   1.111       .  S
C2013      H2024   1.109       .  S
C2013      H2025   1.111       .  S
C2015      H2026   1.111       .  S
C2015      H2027   1.104       .  S
C2015      H2028   1.110       .  S
C2029      C2030   1.403       .  A
C2029      C2034   1.405       .  A
C2029      H2039   1.084       .  S
C2030      C2035   1.484       .  S
C2030      C2031   1.414       .  A
C2031      C2032   1.404       .  A
C2031      C2036   1.507       .  S
C2032      C2033   1.401       .  A
C2032      H2037   1.084       .  S
C2033      C2034   1.411       .  A
C2034      C2038   1.506       .  S
C2035      C2040   1.411       .  A
C2035      C2044   1.404       .  A
C2036      H2052   1.110       .  S
C2036      H2053   1.110       .  S
C2036      H2054   1.111       .  S
C2038      H2049   1.111       .  S
C2038      H2050   1.108       .  S
C2038      H2051   1.110       .  S
C2040      C2041   1.400       .  A
C2040      C2045   1.508       .  S
C2041      C2042   1.403       .  A
C2041      H2046   1.084       .  S
C2042      C2043   1.415       .  A
C2043      C2044   1.407       .  A
C2043      C2047   1.506       .  S
C2044      H2048   1.084       .  S
C2045      H2055   1.111       .  S
C2045      H2056   1.109       .  S
C2045      H2057   1.111       .  S
C2047      H2058   1.110       .  S
C2047      H2059   1.106       .  S
C2047      H2060   1.110       .  S
C2061      C2062   1.399       .  A
C2061      C2066   1.405       .  A
C2061      H2071   1.084       .  S
C2062      C2067   1.478       .  S
C2062      C2063   1.412       .  A
C2063      C2064   1.401       .  A
C2063      C2068   1.509       .  S
C2064      C2065   1.405       .  A
C2064      H2069   1.084       .  S
C2065      C2066   1.422       .  A
C2066      C2070   1.507       .  S
C2067      C2072   1.411       .  A
C2067      C2076   1.398       .  A
C2068      H2084   1.110       .  S
C2068      H2085   1.108       .  S
C2068      H2086   1.111       .  S
C2070      H2081   1.111       .  S
C2070      H2082   1.109       .  S
C2070      H2083   1.109       .  S
C2072      C2073   1.407       .  A
C2072      C2077   1.507       .  S
C2073      C2074   1.404       .  A
C2073      H2078   1.084       .  S
C2074      C2075   1.415       .  A
C2075      C2076   1.397       .  A
C2075      C2079   1.506       .  S
C2076      H2080   1.085       .  S
C2077      H2087   1.111       .  S
C2077      H2088   1.110       .  S
C2077      H2089   1.108       .  S
C2079      H2090   1.110       .  S
C2079      H2091   1.102       .  S
C2079      H2092   1.110       .  S
C2093      C2094   1.401       .  A
C2093      C2098   1.409       .  A
C2093      H2103   1.084       .  S
C2094      C2099   1.484       .  S
C2094      C2095   1.410       .  A
C2095      C2096   1.402       .  A
C2095      C2100   1.508       .  S
C2096      C2097   1.407       .  A
C2096      H2101   1.084       .  S
C2097      C2098   1.422       .  A
C2098      C2102   1.508       .  S
C2099      C2104   1.409       .  A
C2099      C2108   1.403       .  A
C2100      H2116   1.110       .  S
C2100      H2117   1.110       .  S
C2100      H2118   1.111       .  S
C2102      H2113   1.111       .  S
C2102      H2114   1.107       .  S
C2102      H2115   1.110       .  S
C2104      C2105   1.400       .  A
C2104      C2109   1.508       .  S
C2105      C2106   1.404       .  A
C2105      H2110   1.084       .  S
C2106      C2107   1.417       .  A
C2107      C2108   1.409       .  A
C2107      C2111   1.506       .  S
C2108      H2112   1.084       .  S
C2109      H2119   1.111       .  S
C2109      H2120   1.110       .  S
C2109      H2121   1.110       .  S
C2111      H2122   1.110       .  S
C2111      H2123   1.106       .  S
C2111      H2124   1.110       .  S
C2125      C2126   1.397       .  A
C2125      C2130   1.407       .  A
C2125      H2135   1.084       .  S
C2126      C2131   1.488       .  S
C2126      C2127   1.410       .  A
C2127      C2128   1.408       .  A
C2127      C2132   1.507       .  S
C2128      C2129   1.411       .  A
C2128      H2133   1.083       .  S
C2129      C2130   1.430       .  A
C2130      C2134   1.509       .  S
C2131      C2136   1.409       .  A
C2131      C2140   1.406       .  A
C2132      H2148   1.110       .  S
C2132      H2149   1.110       .  S
C2132      H2150   1.111       .  S
C2134      H2145   1.111       .  S
C2134      H2146   1.110       .  S
C2134      H2147   1.110       .  S
C2136      C2137   1.400       .  A
C2136      C2141   1.507       .  S
C2137      C2138   1.404       .  A
C2137      H2142   1.084       .  S
C2138      C2139   1.414       .  A
C2139      C2140   1.410       .  A
C2139      C2143   1.506       .  S
C2140      H2144   1.084       .  S
C2141      H2151   1.111       .  S
C2141      H2152   1.110       .  S
C2141      H2153   1.110       .  S
C2143      H2154   1.110       .  S
C2143      H2155   1.108       .  S
C2143      H2156   1.110       .  S
C2157      C2158   1.405       .  A
C2157      C2162   1.411       .  A
C2157      H2167   1.084       .  S
C2158      C2163   1.497       .  S
C2158      C2159   1.412       .  A
C2159      C2160   1.408       .  A
C2159      C2164   1.507       .  S
C2160      C2161   1.407       .  A
C2160      H2165   1.083       .  S
C2161      C2162   1.419       .  A
C2162      C2166   1.507       .  S
C2163      C2168   1.413       .  A
C2163      C2172   1.406       .  A
C2164      H2180   1.109       .  S
C2164      H2181   1.110       .  S
C2164      H2182   1.111       .  S
C2166      H2177   1.110       .  S
C2166      H2178   1.111       .  S
C2166      H2179   1.106       .  S
C2168      C2169   1.408       .  A
C2168      C2173   1.506       .  S
C2169      C2170   1.405       .  A
C2169      H2174   1.084       .  S
C2170      C2171   1.415       .  A
C2171      C2172   1.409       .  A
C2171      C2175   1.503       .  S
C2172      H2176   1.084       .  S
C2173      H2183   1.111       .  S
C2173      H2184   1.109       .  S
C2173      H2185   1.111       .  S
C2175      H2186   1.110       .  S
C2175      H2187   1.108       .  S
C2175      H2188   1.110       .  S
C2189      C2190   1.398       .  A
C2189      C2194   1.403       .  A
C2189      H2199   1.085       .  S
C2190      C2195   1.481       .  S
C2190      C2191   1.413       .  A
C2191      C2192   1.405       .  A
C2191      C2196   1.507       .  S
C2192      C2193   1.403       .  A
C2192      H2197   1.084       .  S
C2193      C2194   1.422       .  A
C2194      C2198   1.510       .  S
C2195      C2200   1.411       .  A
C2195      C2204   1.399       .  A
C2196      H2212   1.110       .  S
C2196      H2213   1.110       .  S
C2196      H2214   1.111       .  S
C2198      H2209   1.111       .  S
C2198      H2210   1.110       .  S
C2198      H2211   1.106       .  S
C2200      C2201   1.407       .  A
C2200      C2205   1.505       .  S
C2201      C2202   1.404       .  A
C2201      H2206   1.084       .  S
C2202      C2203   1.414       .  A
C2203      C2204   1.401       .  A
C2203      C2207   1.504       .  S
C2204      H2208   1.084       .  S
C2205      H2215   1.111       .  S
C2205      H2216   1.110       .  S
C2205      H2217   1.110       .  S
C2207      H2218   1.111       .  S
C2207      H2219   1.106       .  S
C2207      H2220   1.108       .  S
C2221      C2222   1.398       .  A
C2221      C2226   1.396       .  A
C2221      H2231   1.085       .  S
C2222      C2227   1.479       .  S
C2222      C2223   1.411       .  A
C2223      C2224   1.408       .  A
C2223      C2228   1.505       .  S
C2224      C2225   1.403       .  A
C2224      H2229   1.084       .  S
C2225      C2226   1.415       .  A
C2226      C2230   1.506       .  S
C2227      C2232   1.406       .  A
C2227      C2236   1.402       .  A
C2228      H2244   1.110       .  S
C2228      H2245   1.110       .  S
C2228      H2246   1.111       .  S
C2230      H2241   1.110       .  S
C2230      H2242   1.110       .  S
C2230      H2243   1.103       .  S
C2232      C2233   1.398       .  A
C2232      C2237   1.509       .  S
C2233      C2234   1.411       .  A
C2233      H2238   1.083       .  S
C2234      C2235   1.422       .  A
C2235      C2236   1.408       .  A
C2235      C2239   1.508       .  S
C2236      H2240   1.084       .  S
C2237      H2247   1.111       .  S
C2237      H2248   1.109       .  S
C2237      H2249   1.110       .  S
C2239      H2250   1.111       .  S
C2239      H2251   1.110       .  S
C2239      H2252   1.110       .  S
C2253      C2254   1.402       .  A
C2253      C2258   1.404       .  A
C2253      H2263   1.085       .  S
C2254      C2259   1.493       .  S
C2254      C2255   1.414   1_455  A
C2255      C2256   1.410       .  A
C2255      C2260   1.505       .  S
C2256      C2257   1.405   1_655  A
C2256      H2261   1.082       .  S
C2257      C2258   1.415       .  A
C2258      C2262   1.507       .  S
C2259      C2264   1.412   1_455  A
C2259      C2268   1.405       .  A
C2260      H2276   1.110       .  S
C2260      H2277   1.111       .  S
C2260      H2278   1.111       .  S
C2262      H2273   1.111       .  S
C2262      H2274   1.110       .  S
C2262      H2275   1.106       .  S
C2264      C2265   1.405       .  A
C2264      C2269   1.508       .  S
C2265      C2266   1.407   1_655  A
C2265      H2270   1.084       .  S
C2266      C2267   1.416       .  A
C2267      C2268   1.412       .  A
C2267      C2271   1.506       .  S
C2268      H2272   1.084       .  S
C2269      H2279   1.111       .  S
C2269      H2280   1.109       .  S
C2269      H2281   1.110       .  S
C2271      H2282   1.111       .  S
C2271      H2283   1.110       .  S
C2271      H2284   1.111       .  S
C2285      C2286   1.402   1_655  A
C2285      C2290   1.408       .  A
C2285      H2295   1.084       .  S
C2286      C2291   1.488       .  S
C2286      C2287   1.412       .  A
C2287      C2288   1.406       .  A
C2287      C2292   1.507       .  S
C2288      C2289   1.403   1_455  A
C2288      H2293   1.082       .  S
C2289      C2290   1.415       .  A
C2290      C2294   1.503       .  S
C2291      C2296   1.411   1_455  A
C2291      C2300   1.404       .  A
C2292      H2308   1.110       .  S
C2292      H2309   1.109       .  S
C2292      H2310   1.111       .  S
C2294      H2305   1.111       .  S
C2294      H2306   1.110   1_655  S
C2294      H2307   1.104       .  S
C2296      C2297   1.405       .  A
C2296      C2301   1.507       .  S
C2297      C2298   1.405   1_655  A
C2297      H2302   1.085       .  S
C2298      C2299   1.416       .  A
C2299      C2300   1.408       .  A
C2299      C2303   1.507       .  S
C2300      H2304   1.084       .  S
C2301      H2311   1.111       .  S
C2301      H2312   1.110       .  S
C2301      H2313   1.109       .  S
C2303      H2314   1.110       .  S
C2303      H2315   1.107       .  S
C2303      H2316   1.111       .  S
C2317      C2318   1.399       .  A
C2317      C2322   1.404       .  A
C2317      H2327   1.084       .  S
C2318      C2323   1.481       .  S
C2318      C2319   1.410       .  A
C2319      C2320   1.403       .  A
C2319      C2324   1.506       .  S
C2320      C2321   1.405       .  A
C2320      H2325   1.084       .  S
C2321      C2322   1.416       .  A
C2322      C2326   1.504       .  S
C2323      C2328   1.408       .  A
C2323      C2332   1.402       .  A
C2324      H2340   1.110       .  S
C2324      H2341   1.110       .  S
C2324      H2342   1.111       .  S
C2326      H2337   1.111       .  S
C2326      H2338   1.110       .  S
C2326      H2339   1.105       .  S
C2328      C2329   1.403       .  A
C2328      C2333   1.507       .  S
C2329      C2330   1.407       .  A
C2329      H2334   1.084       .  S
C2330      C2331   1.417       .  A
C2331      C2332   1.404       .  A
C2331      C2335   1.507       .  S
C2332      H2336   1.085       .  S
C2333      H2343   1.111       .  S
C2333      H2344   1.110       .  S
C2333      H2345   1.111       .  S
C2335      H2346   1.110       .  S
C2335      H2347   1.106       .  S
C2335      H2348   1.111       .  S
C2349      C2350   1.405       .  A
C2349      C2354   1.411       .  A
C2349      H2359   1.084       .  S
C2350      C2355   1.496       .  S
C2350      C2351   1.413       .  A
C2351      C2352   1.405       .  A
C2351      C2356   1.507       .  S
C2352      C2353   1.405       .  A
C2352      H2357   1.084       .  S
C2353      C2354   1.419       .  A
C2354      C2358   1.504       .  S
C2355      C2360   1.414       .  A
C2355      C2364   1.404       .  A
C2356      H2372   1.109       .  S
C2356      H2373   1.110       .  S
C2356      H2374   1.111       .  S
C2358      H2369   1.110       .  S
C2358      H2370   1.110       .  S
C2358      H2371   1.106       .  S
C2360      C2361   1.411       .  A
C2360      C2365   1.506       .  S
C2361      C2362   1.405       .  A
C2361      H2366   1.084       .  S
C2362      C2363   1.415       .  A
C2363      C2364   1.406       .  A
C2363      C2367   1.507       .  S
C2364      H2368   1.084       .  S
C2365      H2375   1.111       .  S
C2365      H2376   1.110       .  S
C2365      H2377   1.110       .  S
C2367      H2378   1.110       .  S
C2367      H2379   1.107       .  S
C2367      H2380   1.110       .  S
C2381      C2382   1.396       .  A
C2381      C2386   1.402       .  A
C2381      H2391   1.084       .  S
C2382      C2387   1.481       .  S
C2382      C2383   1.413       .  A
C2383      C2384   1.406       .  A
C2383      C2388   1.506       .  S
C2384      C2385   1.403       .  A
C2384      H2389   1.084       .  S
C2385      C2386   1.421       .  A
C2386      C2390   1.509       .  S
C2387      C2392   1.413       .  A
C2387      C2396   1.399       .  A
C2388      H2404   1.110       .  S
C2388      H2405   1.110       .  S
C2388      H2406   1.111       .  S
C2390      H2401   1.111       .  S
C2390      H2402   1.110       .  S
C2390      H2403   1.109       .  S
C2392      C2393   1.405       .  A
C2392      C2397   1.506       .  S
C2393      C2394   1.401       .  A
C2393      H2398   1.084       .  S
C2394      C2395   1.414       .  A
C2395      C2396   1.403       .  A
C2395      C2399   1.507       .  S
C2396      H2400   1.084       .  S
C2397      H2407   1.111       .  S
C2397      H2408   1.110       .  S
C2397      H2409   1.110       .  S
C2399      H2410   1.111       .  S
C2399      H2411   1.109       .  S
C2399      H2412   1.109       .  S
C2413      C2414   1.399       .  A
C2413      C2418   1.407       .  A
C2413      H2423   1.084       .  S
C2414      C2419   1.493       .  S
C2414      C2415   1.413       .  A
C2415      C2416   1.410       .  A
C2415      C2420   1.505       .  S
C2416      C2417   1.407       .  A
C2416      H2421   1.084       .  S
C2417      C2418   1.426       .  A
C2418      C2422   1.510       .  S
C2419      C2424   1.412       .  A
C2419      C2428   1.405       .  A
C2420      H2436   1.110       .  S
C2420      H2437   1.110       .  S
C2420      H2438   1.111       .  S
C2422      H2433   1.109       .  S
C2422      H2434   1.111       .  S
C2422      H2435   1.111       .  S
C2424      C2425   1.404       .  A
C2424      C2429   1.507       .  S
C2425      C2426   1.404       .  A
C2425      H2430   1.084       .  S
C2426      C2427   1.416       .  A
C2427      C2428   1.410       .  A
C2427      C2431   1.505       .  S
C2428      H2432   1.084       .  S
C2429      H2439   1.111       .  S
C2429      H2440   1.110       .  S
C2429      H2441   1.110       .  S
C2431      H2442   1.110       .  S
C2431      H2443   1.107       .  S
C2431      H2444   1.110       .  S
C2445      C2446   1.398       .  A
C2445      C2450   1.402       .  A
C2445      H2455   1.085       .  S
C2446      C2451   1.484       .  S
C2446      C2447   1.410       .  A
C2447      C2448   1.409       .  A
C2447      C2452   1.505       .  S
C2448      C2449   1.409       .  A
C2448      H2453   1.084       .  S
C2449      C2450   1.421       .  A
C2450      C2454   1.509       .  S
C2451      C2456   1.412       .  A
C2451      C2460   1.400       .  A
C2452      H2468   1.110       .  S
C2452      H2469   1.110       .  S
C2452      H2470   1.111       .  S
C2454      H2465   1.109       .  S
C2454      H2466   1.111       .  S
C2454      H2467   1.111       .  S
C2456      C2457   1.406       .  A
C2456      C2461   1.506       .  S
C2457      C2458   1.404       .  A
C2457      H2462   1.084       .  S
C2458      C2459   1.417       .  A
C2459      C2460   1.403       .  A
C2459      C2463   1.507       .  S
C2460      H2464   1.084       .  S
C2461      H2471   1.111       .  S
C2461      H2472   1.110       .  S
C2461      H2473   1.110       .  S
C2463      H2474   1.110       .  S
C2463      H2475   1.107       .  S
C2463      H2476   1.110       .  S
C2477      C2478   1.407       .  A
C2477      C2482   1.410       .  A
C2477      H2487   1.084       .  S
C2478      C2483   1.489       .  S
C2478      C2479   1.412       .  A
C2479      C2480   1.403       .  A
C2479      C2484   1.507       .  S
C2480      C2481   1.404       .  A
C2480      H2485   1.083       .  S
C2481      C2482   1.410       .  A
C2482      C2486   1.505       .  S
C2483      C2488   1.414       .  A
C2483      C2492   1.400       .  A
C2484      H2500   1.109       .  S
C2484      H2501   1.110       .  S
C2484      H2502   1.111       .  S
C2486      H2497   1.111       .  S
C2486      H2498   1.110       .  S
C2486      H2499   1.111       .  S
C2488      C2489   1.409       .  A
C2488      C2493   1.506       .  S
C2489      C2490   1.404       .  A
C2489      H2494   1.084       .  S
C2490      C2491   1.417       .  A
C2491      C2492   1.402       .  A
C2491      C2495   1.507       .  S
C2492      H2496   1.084       .  S
C2493      H2503   1.111       .  S
C2493      H2504   1.110       .  S
C2493      H2505   1.110       .  S
C2495      H2506   1.110       .  S
C2495      H2507   1.108       .  S
C2495      H2508   1.110       .  S
C2509      C2510   1.401       .  A
C2509      C2514   1.407       .  A
C2509      H2519   1.084       .  S
C2510      C2515   1.495       .  S
C2510      C2511   1.415       .  A
C2511      C2512   1.409       .  A
C2511      C2516   1.507       .  S
C2512      C2513   1.406       .  A
C2512      H2517   1.084       .  S
C2513      C2514   1.422       .  A
C2514      C2518   1.509       .  S
C2515      C2520   1.413       .  A
C2515      C2524   1.405       .  A
C2516      H2532   1.109       .  S
C2516      H2533   1.110       .  S
C2516      H2534   1.111       .  S
C2518      H2529   1.110       .  S
C2518      H2530   1.111       .  S
C2518      H2531   1.103       .  S
C2520      C2521   1.407       .  A
C2520      C2525   1.507       .  S
C2521      C2522   1.406       .  A
C2521      H2526   1.084       .  S
C2522      C2523   1.414       .  A
C2523      C2524   1.409       .  A
C2523      C2527   1.505       .  S
C2524      H2528   1.084       .  S
C2525      H2535   1.111       .  S
C2525      H2536   1.109       .  S
C2525      H2537   1.110       .  S
C2527      H2538   1.111       .  S
C2527      H2539   1.107       .  S
C2527      H2540   1.110       .  S
C2541      C2542   1.402       .  A
C2541      C2546   1.404       .  A
C2541      H2551   1.085       .  S
C2542      C2547   1.489       .  S
C2542      C2543   1.412       .  A
C2543      C2544   1.408       .  A
C2543      C2548   1.505       .  S
C2544      C2545   1.406       .  A
C2544      H2549   1.084       .  S
C2545      C2546   1.419       .  A
C2546      C2550   1.508       .  S
C2547      C2552   1.413       .  A
C2547      C2556   1.401       .  A
C2548      H2564   1.110       .  S
C2548      H2565   1.110       .  S
C2548      H2566   1.111       .  S
C2550      H2561   1.111       .  S
C2550      H2562   1.110       .  S
C2550      H2563   1.108       .  S
C2552      C2553   1.409       .  A
C2552      C2557   1.505       .  S
C2553      C2554   1.404       .  A
C2553      H2558   1.084       .  S
C2554      C2555   1.418       .  A
C2555      C2556   1.403       .  A
C2555      C2559   1.508       .  S
C2556      H2560   1.085       .  S
C2557      H2567   1.111       .  S
C2557      H2568   1.110       .  S
C2557      H2569   1.110       .  S
C2559      H2570   1.110       .  S
C2559      H2571   1.107       .  S
C2559      H2572   1.111       .  S
C2573      C2574   1.405       .  A
C2573      C2578   1.410       .  A
C2573      H2583   1.084       .  S
C2574      C2579   1.489       .  S
C2574      C2575   1.409       .  A
C2575      C2576   1.404       .  A
C2575      C2580   1.507       .  S
C2576      C2577   1.410       .  A
C2576      H2581   1.084       .  S
C2577      C2578   1.418       .  A
C2578      C2582   1.507       .  S
C2579      C2584   1.414       .  A
C2579      C2588   1.400       .  A
C2580      H2596   1.109       .  S
C2580      H2597   1.110       .  S
C2580      H2598   1.111       .  S
C2582      H2593   1.109       .  S
C2582      H2594   1.111       .  S
C2582      H2595   1.110       .  S
C2584      C2585   1.410       .  A
C2584      C2589   1.505       .  S
C2585      C2586   1.404       .  A
C2585      H2590   1.084       .  S
C2586      C2587   1.417       .  A
C2587      C2588   1.401       .  A
C2587      C2591   1.508       .  S
C2588      H2592   1.085       .  S
C2589      H2599   1.111       .  S
C2589      H2600   1.110       .  S
C2589      H2601   1.111       .  S
C2591      H2602   1.110       .  S
C2591      H2603   1.108       .  S
C2591      H2604   1.111       .  S
C2605      C2606   1.402       .  A
C2605      C2610   1.407       .  A
C2605      H2615   1.084       .  S
C2606      C2611   1.475       .  S
C2606      C2607   1.410       .  A
C2607      C2608   1.395       .  A
C2607      C2612   1.511       .  S
C2608      C2609   1.405       .  A
C2608      H2613   1.085       .  S
C2609      C2610   1.420       .  A
C2610      C2614   1.508       .  S
C2611      C2616   1.411       .  A
C2611      C2620   1.400       .  A
C2612      H2628   1.110       .  S
C2612      H2629   1.108       .  S
C2612      H2630   1.111       .  S
C2614      H2625   1.110       .  S
C2614      H2626   1.111       .  S
C2614      H2627   1.105       .  S
C2616      C2617   1.404       .  A
C2616      C2621   1.506       .  S
C2617      C2618   1.402       .  A
C2617      H2622   1.084       .  S
C2618      C2619   1.413       .  A
C2619      C2620   1.398       .  A
C2619      C2623   1.507       .  S
C2620      H2624   1.085       .  S
C2621      H2631   1.111       .  S
C2621      H2632   1.110       .  S
C2621      H2633   1.109       .  S
C2623      H2634   1.111       .  S
C2623      H2635   1.108       .  S
C2623      H2636   1.110       .  S
C2637      C2638   1.395       .  A
C2637      C2642   1.399       .  A
C2637      H2647   1.085       .  S
C2638      C2643   1.475       .  S
C2638      C2639   1.410       .  A
C2639      C2640   1.404       .  A
C2639      C2644   1.506       .  S
C2640      C2641   1.406       .  A
C2640      H2645   1.084       .  S
C2641      C2642   1.423       .  A
C2642      C2646   1.510       .  S
C2643      C2648   1.412       .  A
C2643      C2652   1.396       .  A
C2644      H2660   1.110       .  S
C2644      H2661   1.110       .  S
C2644      H2662   1.111       .  S
C2646      H2657   1.109       .  S
C2646      H2658   1.111       .  S
C2646      H2659   1.110       .  S
C2648      C2649   1.407       .  A
C2648      C2653   1.505       .  S
C2649      C2650   1.402       .  A
C2649      H2654   1.084       .  S
C2650      C2651   1.418       .  A
C2651      C2652   1.395       .  A
C2651      C2655   1.510       .  S
C2652      H2656   1.085       .  S
C2653      H2663   1.111       .  S
C2653      H2664   1.110       .  S
C2653      H2665   1.110       .  S
C2655      H2666   1.111       .  S
C2655      H2667   1.107       .  S
C2655      H2668   1.110       .  S
C2669      C2670   1.400       .  A
C2669      C2674   1.409       .  A
C2669      H2679   1.084       .  S
C2670      C2675   1.481       .  S
C2670      C2671   1.409       .  A
C2671      C2672   1.400       .  A
C2671      C2676   1.510       .  S
C2672      C2673   1.410       .  A
C2672      H2677   1.083       .  S
C2673      C2674   1.425       .  A
C2674      C2678   1.508       .  S
C2675      C2680   1.411       .  A
C2675      C2684   1.399       .  A
C2676      H2692   1.110       .  S
C2676      H2693   1.109       .  S
C2676      H2694   1.111       .  S
C2678      H2689   1.111       .  S
C2678      H2690   1.110       .  S
C2678      H2691   1.110       .  S
C2680      C2681   1.405       .  A
C2680      C2685   1.506       .  S
C2681      C2682   1.405       .  A
C2681      H2686   1.083       .  S
C2682      C2683   1.417       .  A
C2683      C2684   1.402       .  A
C2683      C2687   1.509       .  S
C2684      H2688   1.084       .  S
C2685      H2695   1.111       .  S
C2685      H2696   1.110       .  S
C2685      H2697   1.109       .  S
C2687      H2698   1.108       .  S
C2687      H2699   1.107       .  S
C2687      H2700   1.111       .  S
C2701      C2702   1.402       .  A
C2701      C2706   1.400       .  A
C2701      H2711   1.085       .  S
C2702      C2707   1.477       .  S
C2702      C2703   1.409       .  A
C2703      C2704   1.404       .  A
C2703      C2708   1.506       .  S
C2704      C2705   1.404       .  A
C2704      H2709   1.085       .  S
C2705      C2706   1.411       .  A
C2706      C2710   1.507       .  S
C2707      C2712   1.412       .  A
C2707      C2716   1.401       .  A
C2708      H2724   1.110       .  S
C2708      H2725   1.109       .  S
C2708      H2726   1.111       .  S
C2710      H2721   1.110       .  S
C2710      H2722   1.110       .  S
C2710      H2723   1.109       .  S
C2712      C2713   1.402       .  A
C2712      C2717   1.507       .  S
C2713      C2714   1.401       .  A
C2713      H2718   1.084       .  S
C2714      C2715   1.413       .  A
C2715      C2716   1.404       .  A
C2715      C2719   1.507       .  S
C2716      H2720   1.084       .  S
C2717      H2727   1.111       .  S
C2717      H2728   1.110       .  S
C2717      H2729   1.109       .  S
C2719      H2730   1.111       .  S
C2719      H2731   1.109       .  S
C2719      H2732   1.110       .  S
C2733      C2734   1.399       .  A
C2733      C2738   1.404       .  A
C2733      H2743   1.084       .  S
C2734      C2739   1.485       .  S
C2734      C2735   1.415       .  A
C2735      C2736   1.406       .  A
C2735      C2740   1.507       .  S
C2736      C2737   1.403       .  A
C2736      H2741   1.084       .  S
C2737      C2738   1.418       .  A
C2738      C2742   1.508       .  S
C2739      C2744   1.414       .  A
C2739      C2748   1.399       .  A
C2740      H2756   1.109       .  S
C2740      H2757   1.110       .  S
C2740      H2758   1.111       .  S
C2742      H2753   1.108       .  S
C2742      H2754   1.111       .  S
C2742      H2755   1.111       .  S
C2744      C2745   1.407       .  A
C2744      C2749   1.506       .  S
C2745      C2746   1.402       .  A
C2745      H2750   1.084       .  S
C2746      C2747   1.417       .  A
C2747      C2748   1.400       .  A
C2747      C2751   1.508       .  S
C2748      H2752   1.085       .  S
C2749      H2759   1.111       .  S
C2749      H2760   1.110       .  S
C2749      H2761   1.111       .  S
C2751      H2762   1.110       .  S
C2751      H2763   1.108       .  S
C2751      H2764   1.110       .  S
