geometry optimzed in LAMMPS
_audit_creation_date              2020-11-30 
_audit_creation_method            'lammps2cif' 
_symmetry_space_group_name_H-M    'P1' 
_symmetry_Int_Tables_number       1 
_symmetry_cell_setting            triclinic 
loop_ 
_symmetry_equiv_pos_as_xyz 
  x,y,z 
_cell_length_a                    48.68431807326384 
_cell_length_b                    48.675938108511744 
_cell_length_c                    48.641008884256046 
_cell_angle_alpha                 89.85482497123496 
_cell_angle_beta                  90.00338176160604 
_cell_angle_gamma                 90.35022321043135 
loop_ 
_atom_site_label 
_atom_site_type_symbol 
_atom_site_fract_x 
_atom_site_fract_y 
_atom_site_fract_z 
_atom_site_charge 
C1          C  0.13521314  0.15221344  0.51371484     0.01050
C2          C  0.13478274  0.15264009  0.48558007     0.01050
C3          C  0.13826927  0.45974064  0.18170501     0.01050
C4          C  0.14179925  0.48770042  0.18455985     0.01050
C5          C  0.44478563  0.15843103  0.18855460     0.01050
C6          C  0.47247735  0.16337886  0.19005455     0.01050
C7          C  0.14537516  0.78686620  0.48540652     0.01050
C8          C  0.14771993  0.78323088  0.51324953     0.01050
C9          C  0.76589771  0.16003352  0.48478071     0.01050
C10         C  0.77117308  0.15772784  0.51249163     0.01050
C11         C  0.76932540  0.78178068  0.48486398     0.01050
C12         C  0.76826042  0.78050501  0.51289926     0.01050
C13         C  0.44457357  0.15248289  0.81894385     0.01050
C14         C  0.47210250  0.15646942  0.81505367     0.01050
C15         C  0.14799708  0.46049892  0.80779171     0.01050
C16         C  0.14990566  0.48842491  0.80452027     0.01050
C17         C  0.44329821  0.79151068  0.18527837     0.01050
C18         C  0.47138786  0.79058886  0.18508252     0.01050
C19         C  0.76500096  0.45567777  0.19259086     0.01050
C20         C  0.76387006  0.48339069  0.19649321     0.01050
C21         C  0.76919032  0.45779199  0.80650283     0.01050
C22         C  0.77322702  0.48566732  0.80853121     0.01050
C23         C  0.47000353  0.79000012  0.81953472     0.01050
C24         C  0.44258016  0.78686105  0.81400562     0.01050
C25         C  0.58914051  0.70307084  0.89367604     0.03610
C26         C  0.56315660  0.71523125  0.89067754    -0.12530
C27         C  0.55390267  0.72328002  0.86444548     0.01120
C28         C  0.57106504  0.71996813  0.84145113    -0.11060
C29         C  0.59727258  0.70847727  0.84422758     0.03610
C30         C  0.60570492  0.69935965  0.87031336    -0.10480
H31         H  0.55054879  0.71897910  0.90861632     0.09200
H32         H  0.56440155  0.72758992  0.82159155     0.06730
H33         H  0.62614872  0.69105123  0.87296542     0.06580
C34         C  0.70350565  0.60654415  0.89980531     0.03610
C35         C  0.71646429  0.58146083  0.89411415    -0.12530
C36         C  0.72764746  0.57686952  0.86786952     0.01120
C37         C  0.72668648  0.59777330  0.84788272    -0.11060
C38         C  0.71387056  0.62292120  0.85352066     0.03610
C39         C  0.70195702  0.62677792  0.87932378    -0.10480
H40         H  0.71805443  0.56582886  0.90991522     0.09200
H41         H  0.73527705  0.59401772  0.82768839     0.06730
H42         H  0.69201206  0.64609198  0.88400851     0.06580
C43         C  0.84998193  0.60633923  0.72895076     0.03610
C44         C  0.84460649  0.57861005  0.73571342    -0.12530
C45         C  0.81783675  0.57024252  0.74332622     0.01120
C46         C  0.79701179  0.59003901  0.74492474    -0.11060
C47         C  0.80169018  0.61724021  0.73728922     0.03610
C48         C  0.82827953  0.62529315  0.72926952    -0.10480
H49         H  0.86115112  0.56384688  0.73530218     0.09200
H50         H  0.77688671  0.58427110  0.75257600     0.06730
H51         H  0.83242340  0.64658545  0.72405713     0.06580
C52         C  0.82275862  0.73918745  0.60642847     0.03610
C53         C  0.80355895  0.74067389  0.62789468    -0.12530
C54         C  0.81040998  0.73186894  0.65446101     0.01120
C55         C  0.83654343  0.72125397  0.65913994    -0.11060
C56         C  0.85626683  0.72036634  0.63809957     0.03610
C57         C  0.84941744  0.72971592  0.61169392    -0.10480
H58         H  0.78299092  0.74791607  0.62355232     0.09200
H59         H  0.84171301  0.71351037  0.67940269     0.06730
H60         H  0.86454486  0.72987357  0.59541936     0.06580
C61         C  0.69275786  0.86707917  0.63253195     0.03610
C62         C  0.70297325  0.86201542  0.60604560    -0.12530
C63         C  0.71211358  0.83562163  0.59916510     0.01120
C64         C  0.70965181  0.81419929  0.61839061    -0.11060
C65         C  0.69850742  0.81881443  0.64455082     0.03610
C66         C  0.69023400  0.84546153  0.65148848    -0.10480
H67         H  0.70398130  0.87849783  0.59106312     0.09200
H68         H  0.71681278  0.79388550  0.61290930     0.06730
H69         H  0.68212474  0.84964032  0.67180092     0.06580
C70         C  0.59472328  0.87456286  0.75061290     0.03610
C71         C  0.56822205  0.86701538  0.75960502    -0.12530
C72         C  0.56318987  0.84026372  0.76957853     0.01120
C73         C  0.58532754  0.82210488  0.77274952    -0.11060
C74         C  0.61131419  0.82859954  0.76238094     0.03610
C75         C  0.61573761  0.85474647  0.75125671    -0.10480
H76         H  0.55158212  0.88155909  0.75858985     0.09200
H77         H  0.58174297  0.80195299  0.78159901     0.06730
H78         H  0.63564273  0.85956091  0.74245732     0.06580
O79         O  0.73166844  0.70199758  0.70941535    -0.87860
C80         C  0.74997710  0.70471329  0.79137665     0.88170
Mg81       Mg  0.72224157  0.73777570  0.68574077     1.58150
O82         O  0.68383696  0.67967534  0.77445725    -0.87590
O83         O  0.71397407  0.66187149  0.71889936    -0.74920
C84         C  0.63223422  0.80683916  0.75936676     0.93220
O85         O  0.76358791  0.75057961  0.74224469    -0.74730
O86         O  0.65241753  0.81099117  0.74325365    -0.82240
Mg87       Mg  0.76853555  0.70463649  0.73429051     1.57960
C88         C  0.61772697  0.71042657  0.82161986     0.93140
O89         O  0.78206737  0.66056165  0.72793366    -0.80500
H90         H  0.65881921  0.65292435  0.75570031    -0.05850
C91         C  0.68854119  0.76070275  0.79665364     0.88080
O92         O  0.67589625  0.73076157  0.69024140    -0.75010
O93         O  0.74403975  0.69371222  0.76931980    -0.87780
O94         O  0.63964785  0.69631821  0.82341741    -0.80590
C95         C  0.71118378  0.64448046  0.83217509     0.93260
C96         C  0.77948264  0.63764421  0.74021212     0.93110
Mg97       Mg  0.63978488  0.73843079  0.76468326     1.57950
O98         O  0.62835181  0.78377869  0.77133598    -0.80510
O99         O  0.64479923  0.69213452  0.75613778    -0.74750
O100        O  0.72492262  0.64237271  0.81002624    -0.80590
O101        O  0.79351640  0.71487327  0.69688574    -0.82300
O102        O  0.68571292  0.80019412  0.68805467    -0.80620
C103        C  0.66240982  0.67389801  0.76209354     0.87550
O104        O  0.66421840  0.74908277  0.72939828    -0.87760
O105        O  0.67647971  0.73954390  0.78943910    -0.87870
O106        O  0.69585744  0.77887465  0.77935976    -0.74920
Mg107      Mg  0.72022716  0.65619032  0.76521711     1.57970
O108        O  0.69438923  0.66402880  0.83606136    -0.82300
H109        H  0.71624682  0.67750154  0.68025802    -0.06020
O110        O  0.72469605  0.76164756  0.72315808    -0.87570
H111        H  0.74932005  0.78959393  0.74058128    -0.05850
H112        H  0.63658410  0.73250363  0.70389092    -0.06030
C113        C  0.74602993  0.76830627  0.73513218     0.87520
C114        C  0.72079695  0.68037107  0.70181919     0.88110
C115        C  0.65788376  0.73763586  0.70768557     0.88160
H116        H  0.69368717  0.76344001  0.81809819    -0.06000
O117        O  0.73166647  0.71060837  0.80890206    -0.75030
Mg118      Mg  0.68957035  0.78570331  0.73304489     1.58000
H119        H  0.77114247  0.71012546  0.79551877    -0.06020
C120        C  0.78939799  0.73039927  0.67628809     0.93140
O121        O  0.71352930  0.77582349  0.66134911    -0.82260
C122        C  0.69871828  0.79677752  0.66556030     0.93200
O123        O  0.75911710  0.63240407  0.75586239    -0.82250
Mg124      Mg  0.68522943  0.70281963  0.81231253     1.58180
O125        O  0.76696248  0.74320711  0.67296228    -0.80580
O126        O  0.61417730  0.72786938  0.80241449    -0.82270
C127        C  0.65367543  0.66687719  0.98534758     0.01050
C128        C  0.65197393  0.66510116  0.01353088     0.01050
C129        C  0.64039007  0.95798094  0.68381710     0.01050
C130        C  0.64113070  0.98576406  0.68093694     0.01050
C131        C  0.97163600  0.66387129  0.68758571     0.01050
C132        C  0.94374132  0.66504792  0.69048997     0.01050
C133        C  0.71523155  0.37037432  0.86223121     0.03610
C134        C  0.71186949  0.35037844  0.84155501    -0.12530
C135        C  0.69947336  0.32508999  0.84722869     0.01120
C136        C  0.69132375  0.31927782  0.87412463    -0.11060
C137        C  0.69719143  0.33756617  0.89579755     0.03610
C138        C  0.70828984  0.36364456  0.88959778    -0.10480
H139        H  0.71865527  0.35469858  0.82074494     0.09200
H140        H  0.68240242  0.29929635  0.87864576     0.06730
H141        H  0.71169152  0.37831093  0.90579583     0.06580
C142        C  0.56577657  0.19814480  0.87109561     0.03610
C143        C  0.58725081  0.19547031  0.85194817    -0.12530
C144        C  0.61320156  0.20712611  0.85712230     0.01120
C145        C  0.61759577  0.22093054  0.88192403    -0.11060
C146        C  0.59656090  0.22281922  0.90151572     0.03610
C147        C  0.57056304  0.21161521  0.89607465    -0.10480
H148        H  0.58330976  0.18533892  0.83250361     0.09200
H149        H  0.63750298  0.23010067  0.88617539     0.06730
H150        H  0.55425598  0.21334206  0.91112202     0.06580
C151        C  0.82705139  0.36395615  0.76740537     0.03610
C152        C  0.80866788  0.34207675  0.77169951    -0.12530
C153        C  0.81528826  0.31540148  0.76339542     0.01120
C154        C  0.84093638  0.31057170  0.75148264    -0.11060
C155        C  0.85993508  0.33213618  0.74791081     0.03610
C156        C  0.85279378  0.35902068  0.75543351    -0.10480
H157        H  0.78856869  0.34618267  0.78032856     0.09200
H158        H  0.84608893  0.29003692  0.74467749     0.06730
H159        H  0.86707805  0.37584890  0.75206969     0.06580
C160        C  0.82214798  0.21114269  0.60335799     0.03610
C161        C  0.80126696  0.21463124  0.62307472    -0.12530
C162        C  0.80674565  0.22742202  0.64823005     0.01120
C163        C  0.83357258  0.23587097  0.65408889    -0.11060
C164        C  0.85487265  0.23150134  0.63522713     0.03610
C165        C  0.84913572  0.21944321  0.60962481    -0.10480
H166        H  0.78053744  0.20771631  0.61857709     0.09200
H167        H  0.83815717  0.24525311  0.67377995     0.06730
H168        H  0.86539672  0.21692241  0.59465547     0.06580
C169        C  0.72942375  0.10326771  0.60677196     0.03610
C170        C  0.71958647  0.07658885  0.61198823    -0.12530
C171        C  0.70941056  0.06970796  0.63820230     0.01120
C172        C  0.71029562  0.08959121  0.65924346    -0.11060
C173        C  0.72196295  0.11548838  0.65470903     0.03610
C174        C  0.73141830  0.12225684  0.62832855    -0.10480
H175        H  0.71902129  0.06169142  0.59549640     0.09200
H176        H  0.70174067  0.08495790  0.67931146     0.06730
H177        H  0.73924193  0.14276061  0.62417716     0.06580
C178        C  0.55797069  0.11017421  0.75182764     0.03610
C179        C  0.56269876  0.08369025  0.74122241    -0.12530
C180        C  0.58911806  0.07645684  0.73224838     0.01120
C181        C  0.61006805  0.09626590  0.73153690    -0.11060
C182        C  0.60544107  0.12278576  0.74132054     0.03610
C183        C  0.57986710  0.12922680  0.75241797    -0.10480
H184        H  0.54617033  0.06876147  0.74004989     0.09200
H185        H  0.63017729  0.09079629  0.72374704     0.06730
H186        H  0.57698261  0.14940882  0.76128592     0.06580
O187        O  0.75972221  0.21915796  0.73704017    -0.87860
C188        C  0.70623211  0.28241659  0.74722574     0.88170
Mg189      Mg  0.75094760  0.18673794  0.70833010     1.58150
O190        O  0.70967759  0.23526336  0.80227768    -0.87590
O191        O  0.77025895  0.22734677  0.77995218    -0.74920
C192        C  0.62789861  0.14307728  0.74157024     0.93220
O193        O  0.71940713  0.24574510  0.69208389    -0.74730
O194        O  0.64484004  0.14359389  0.72174809    -0.82240
Mg195      Mg  0.75536801  0.25941250  0.72009798     1.57960
C196        C  0.63451319  0.20736856  0.83550144     0.93140
O197        O  0.79231540  0.27716909  0.74391003    -0.80500
H198        H  0.73048249  0.21644985  0.83228973    -0.05850
C199        C  0.64655393  0.22275380  0.74805644     0.88080
O200        O  0.73765525  0.15831508  0.74407491    -0.75010
O201        O  0.72668649  0.26847150  0.75250820    -0.87780
O202        O  0.64988469  0.22853029  0.83305198    -0.80590
C203        C  0.69880701  0.30307311  0.82642317     0.93260
C204        C  0.79394378  0.29383247  0.76397660     0.93110
Mg205      Mg  0.66663222  0.17787520  0.78536016     1.57950
O206        O  0.63020328  0.15898698  0.76215856    -0.80510
O207        O  0.70205531  0.19235623  0.81333199    -0.74750
O208        O  0.71935172  0.30060824  0.81045707    -0.80590
O209        O  0.78623734  0.24889585  0.68690500    -0.82300
O210        O  0.70153260  0.13778148  0.69290301    -0.80620
C211        C  0.71466388  0.21501422  0.81675067     0.87550
O212        O  0.69500117  0.16920641  0.75246674    -0.87760
O213        O  0.66093726  0.21825409  0.76846337    -0.87870
O214        O  0.64999486  0.20962681  0.72579496    -0.74920
Mg215      Mg  0.74265728  0.26343333  0.79321728     1.57970
O216        O  0.67893089  0.28601196  0.82622383    -0.82300
H217        H  0.78877565  0.19803021  0.75688576    -0.06020
O218        O  0.71062255  0.20310270  0.70340657    -0.87570
H219        H  0.68981672  0.22251433  0.67375333    -0.05850
H220        H  0.71425526  0.13946862  0.77323501    -0.06030
C221        C  0.70590728  0.22350931  0.68904276     0.87520
C222        C  0.77365185  0.21417993  0.75767708     0.88110
C223        C  0.71534351  0.15491809  0.75725783     0.88160
H224        H  0.63099220  0.23847140  0.74903005    -0.06000
O225        O  0.68378181  0.27899038  0.76016343    -0.75030
Mg226      Mg  0.67817459  0.17430480  0.71193326     1.58000
H227        H  0.70733456  0.29758224  0.73097953    -0.06020
C228        C  0.78539364  0.22940865  0.66960795     0.93140
O229        O  0.74147960  0.15372600  0.67750314    -0.82260
C230        C  0.72186645  0.13652918  0.67648724     0.93200
O231        O  0.77656753  0.29360132  0.78342149    -0.82250
Mg232      Mg  0.66930950  0.25158819  0.79628417     1.58180
O233        O  0.76734799  0.21054439  0.67112922    -0.80580
O234        O  0.63601571  0.18725461  0.81900022    -0.82270
C235        C  0.31622065  0.72704849  0.90191785     0.03610
C236        C  0.34240108  0.73854116  0.89662802    -0.12530
C237        C  0.34820486  0.75007495  0.87073152     0.01120
C238        C  0.32707348  0.75289465  0.85137570    -0.11060
C239        C  0.30137886  0.74105174  0.85596615     0.03610
C240        C  0.29629717  0.72764106  0.88085491    -0.10480
H241        H  0.35849845  0.73761372  0.91191994     0.09200
H242        H  0.33159043  0.76194298  0.83145932     0.06730
H243        H  0.27677477  0.71717199  0.88353761     0.06580
C244        C  0.23772279  0.59969398  0.89178661     0.03610
C245        C  0.23858661  0.62071903  0.87195131    -0.12530
C246        C  0.22460560  0.61781895  0.84691505     0.01120
C247        C  0.21052801  0.59329862  0.84146753    -0.11060
C248        C  0.21034869  0.57183771  0.86071982     0.03610
C249        C  0.22375172  0.57506256  0.88604064    -0.10480
H250        H  0.24875146  0.63999538  0.87678766     0.09200
H251        H  0.19950891  0.59086954  0.82223464     0.06730
H252        H  0.22289112  0.55880437  0.90127898     0.06580
C253        C  0.35639780  0.83481197  0.75009225     0.03610
C254        C  0.33694705  0.81352073  0.74707497    -0.12530
C255        C  0.31168086  0.81829628  0.73405037     0.01120
C256        C  0.30594394  0.84470355  0.72423253    -0.11060
C257        C  0.32465354  0.86644643  0.72799926     0.03610
C258        C  0.35029010  0.86127621  0.74018537    -0.10480
H259        H  0.34126861  0.79336617  0.75551627     0.09200
H260        H  0.28592982  0.84893109  0.71544127     0.06730
H261        H  0.36485109  0.87795136  0.74300899     0.06580
C262        C  0.18324707  0.84232158  0.60754024     0.03610
C263        C  0.17962138  0.82258980  0.62845153    -0.12530
C264        C  0.18983075  0.82717937  0.65497061     0.01120
C265        C  0.20236132  0.85236722  0.66094248    -0.11060
C266        C  0.20466127  0.87310093  0.64088345     0.03610
C267        C  0.19606877  0.86759745  0.61378628    -0.10480
H268        H  0.17076670  0.80273061  0.62341316     0.09200
H269        H  0.21052217  0.85587460  0.68138974     0.06730
H270        H  0.19933272  0.88275710  0.59775502     0.06580
C271        C  0.08952972  0.57945267  0.76869793     0.03610
C272        C  0.06429840  0.58720172  0.75666881    -0.12530
C273        C  0.05639874  0.61521816  0.75643201     0.01120
C274        C  0.07438700  0.63465670  0.76842093    -0.11060
C275        C  0.10104619  0.62771483  0.77525045     0.03610
C276        C  0.10794704  0.60008975  0.77739074    -0.10480
H277        H  0.05178273  0.57167910  0.74679667     0.09200
H278        H  0.06897606  0.65613155  0.76991598     0.06730
H279        H  0.12853889  0.59470359  0.78388807     0.06580
C280        C  0.09855246  0.72009066  0.59983731     0.03610
C281        C  0.07173612  0.70962776  0.60314902    -0.12530
C282        C  0.06410129  0.69662744  0.62785609     0.01120
C283        C  0.08345599  0.69401582  0.64920513    -0.11060
C284        C  0.10988404  0.70543378  0.64663626     0.03610
C285        C  0.11728525  0.71816977  0.62175961    -0.10480
H286        H  0.05688036  0.71171457  0.58670119     0.09200
H287        H  0.07732762  0.68456469  0.66845700     0.06730
H288        H  0.13759289  0.72717956  0.61957603     0.06580
O289        O  0.15512132  0.72184448  0.73837498    -0.87860
C290        C  0.20986528  0.65966329  0.74948179     0.88170
Mg291      Mg  0.16293195  0.75376946  0.70835315     1.58150
O292        O  0.20841648  0.70896067  0.80220339    -0.87590
O293        O  0.14697616  0.71560426  0.78224083    -0.74920
C294        C  0.28932797  0.79760739  0.73501049     0.93220
O295        O  0.19429221  0.69397930  0.69361217    -0.74730
O296        O  0.27178738  0.79648314  0.71561409    -0.82240
Mg297      Mg  0.15963183  0.68066363  0.72349577     1.57960
C298        C  0.28176837  0.73901198  0.83307688     0.93140
O299        O  0.12428464  0.66269621  0.75059516    -0.80500
H300        H  0.18794917  0.72920176  0.83138911    -0.05850
C301        C  0.26922529  0.71913822  0.74541922     0.88080
O302        O  0.17829133  0.78295893  0.74239037    -0.75010
O303        O  0.18944710  0.67343413  0.75535450    -0.87780
O304        O  0.26780004  0.71700207  0.83054791    -0.80590
C305        C  0.22222075  0.64134837  0.82794907     0.93260
C306        C  0.12296950  0.64848568  0.77273680     0.93110
Mg307      Mg  0.25046687  0.76575596  0.78131281     1.57950
O308        O  0.28700742  0.78287305  0.75653724    -0.80510
O309        O  0.21553923  0.75259641  0.81038251    -0.74750
O310        O  0.19981807  0.64453750  0.81487202    -0.80590
O311        O  0.12826485  0.68833829  0.68901401    -0.82300
O312        O  0.21262985  0.80193158  0.68951238    -0.80620
C313        C  0.20346892  0.72995404  0.81550565     0.87550
O314        O  0.22156199  0.77294975  0.74887998    -0.87760
O315        O  0.25567043  0.72481996  0.76608625    -0.87870
O316        O  0.26493480  0.73094773  0.72252233    -0.74920
Mg317      Mg  0.17543010  0.68048154  0.79659323     1.57970
O318        O  0.24189181  0.65846430  0.82605176    -0.82300
H319        H  0.12688468  0.74354554  0.75865675    -0.06020
O320        O  0.20325267  0.73729668  0.70199067    -0.87570
H321        H  0.22273536  0.71639864  0.67257012    -0.05850
H322        H  0.20299005  0.80320993  0.76932974    -0.06030
C323        C  0.20738875  0.71614597  0.68863290     0.87520
C324        C  0.14224239  0.72761484  0.75947655     0.88110
C325        C  0.20128068  0.78717531  0.75407338     0.88160
H326        H  0.28467419  0.70332636  0.74671211    -0.06000
O327        O  0.23301449  0.66399891  0.76080924    -0.75030
Mg328      Mg  0.23676477  0.76598294  0.70823987     1.58000
H329        H  0.20812787  0.64394736  0.73389934    -0.06020
C330        C  0.12847640  0.70720055  0.67077417     0.93140
O331        O  0.17116256  0.78732227  0.67662240    -0.82260
C332        C  0.19093155  0.80446584  0.67510911     0.93200
O333        O  0.14113984  0.65000453  0.79129935    -0.82250
Mg334      Mg  0.24862931  0.69259282  0.79523167     1.58180
O335        O  0.14354111  0.72858014  0.67315994    -0.80580
O336        O  0.28059033  0.75836770  0.81558264    -0.82270
C337        C  0.26694951  0.95972837  0.69080715     0.01050
C338        C  0.26506005  0.98775406  0.69244778     0.01050
C339        C  0.32145817  0.22283961  0.90339170     0.03610
C340        C  0.34755095  0.21250699  0.89672036    -0.12530
C341        C  0.35249003  0.20186055  0.87033592     0.01120
C342        C  0.33072124  0.20004116  0.85136893    -0.11060
C343        C  0.30460036  0.21023101  0.85780923     0.03610
C344        C  0.30026220  0.22147052  0.88385808    -0.10480
H345        H  0.36407003  0.21338443  0.91156300     0.09200
H346        H  0.33467654  0.19200660  0.83099627     0.06730
H347        H  0.28047520  0.23033565  0.88870120     0.06580
C348        C  0.22814332  0.34486830  0.89515558     0.03610
C349        C  0.21913763  0.37144048  0.88793461    -0.12530
C350        C  0.21002142  0.37679223  0.86095930     0.01120
C351        C  0.20953321  0.35531350  0.84179902    -0.11060
C352        C  0.21929524  0.32915484  0.84827421     0.03610
C353        C  0.22862593  0.32403662  0.87509398    -0.10480
H354        H  0.21907499  0.38764138  0.90315940     0.09200
H355        H  0.20131801  0.35914367  0.82144723     0.06730
H356        H  0.23562525  0.30367621  0.88068259     0.06580
C357        C  0.19009745  0.10650631  0.60548915     0.03610
C358        C  0.19994006  0.08001129  0.61087385    -0.12530
C359        C  0.21015917  0.07355764  0.63697532     0.01120
C360        C  0.20978244  0.09323308  0.65793610    -0.11060
C361        C  0.19942907  0.11961331  0.65311932     0.03610
C362        C  0.18924871  0.12596942  0.62683997    -0.10480
H363        H  0.20074084  0.06488342  0.59458833     0.09200
H364        H  0.21828195  0.08802579  0.67787389     0.06730
H365        H  0.18160233  0.14640458  0.62256666     0.06580
C366        C  0.32579267  0.08080658  0.73018336     0.03610
C367        C  0.30843186  0.10367385  0.72692354    -0.12530
C368        C  0.31633973  0.12988078  0.73610611     0.01120
C369        C  0.34284874  0.13360870  0.74636885    -0.11060
C370        C  0.36103157  0.11144837  0.74851831     0.03610
C371        C  0.35225274  0.08487163  0.74108486    -0.10480
H372        H  0.28780831  0.10052581  0.71910129     0.09200
H373        H  0.34901999  0.15361064  0.75404999     0.06730
H374        H  0.36560107  0.06746750  0.74449767     0.06580
C375        C  0.06817186  0.24037206  0.63390911     0.03610
C376        C  0.09083936  0.24561257  0.65099271    -0.12530
C377        C  0.11745846  0.23853757  0.64280110     0.01120
C378        C  0.12159493  0.22862258  0.61613420    -0.11060
C379        C  0.09944764  0.22537647  0.59783966     0.03610
C380        C  0.07264867  0.23110951  0.60697667    -0.10480
H381        H  0.08735564  0.25306721  0.67166924     0.09200
H382        H  0.14189853  0.22194495  0.61006236     0.06730
H383        H  0.05526997  0.22720316  0.59360903     0.06580
C384        C  0.05771038  0.33421492  0.74958499     0.03610
C385        C  0.06416060  0.36067865  0.75906710    -0.12530
C386        C  0.09021209  0.36619594  0.77026556     0.01120
C387        C  0.10966727  0.34495609  0.77196143    -0.11060
C388        C  0.10357901  0.31851372  0.76206100     0.03610
C389        C  0.07746566  0.31340081  0.75113630    -0.10480
H390        H  0.04917106  0.37693486  0.75752272     0.09200
H391        H  0.13009362  0.34957261  0.77959831     0.06730
H392        H  0.07253267  0.29319321  0.74311582     0.06580
O393        O  0.18997818  0.24995109  0.79136230    -0.87860
C394        C  0.19643683  0.27238042  0.71020924     0.88170
Mg395      Mg  0.22539534  0.23968593  0.81578369     1.58150
O396        O  0.17094305  0.20540122  0.72146618    -0.87590
O397        O  0.15116106  0.23152060  0.77807931    -0.74920
C398        C  0.29549244  0.15166561  0.73941319     0.93220
O399        O  0.23933480  0.28339902  0.76164507    -0.74730
O400        O  0.29976830  0.17103436  0.75649661    -0.82240
Mg401      Mg  0.19289838  0.28777906  0.76798651     1.57960
C402        C  0.20238493  0.14123029  0.67434560     0.93140
O403        O  0.14763125  0.30042731  0.77298892    -0.80500
H404        H  0.14275999  0.18023021  0.73784586    -0.05850
C405        C  0.25256137  0.21114705  0.70371115     0.88080
O406        O  0.21864246  0.19357044  0.80877140    -0.75010
O407        O  0.18422566  0.26507459  0.73126059    -0.87780
O408        O  0.19052632  0.16425041  0.67084702    -0.80590
C409        C  0.13924915  0.23612736  0.66381173     0.93260
C410        C  0.12535831  0.29749688  0.75952416     0.93110
Mg411      Mg  0.22798532  0.16113757  0.73290342     1.57950
O412        O  0.27275936  0.14904758  0.72676541    -0.80510
O413        O  0.18177052  0.16599075  0.73991890    -0.74750
O414        O  0.13614462  0.24844313  0.68668395    -0.80590
O415        O  0.20187044  0.31109986  0.80666156    -0.82300
O416        O  0.28679381  0.20113892  0.81321239    -0.80620
C417        C  0.16414135  0.18372288  0.73286566     0.87550
O418        O  0.23756225  0.18403455  0.76927336    -0.87760
O419        O  0.23107579  0.19875832  0.70934542    -0.87870
O420        O  0.26986682  0.21761679  0.72211672    -0.74920
Mg421      Mg  0.14711401  0.24067977  0.73189330     1.57970
O422        O  0.15903570  0.21975347  0.65956900    -0.82300
H423        H  0.16440277  0.23122769  0.81764058    -0.06020
O424        O  0.25060489  0.24375006  0.77922714    -0.87570
H425        H  0.27853648  0.26963030  0.76353590    -0.05850
H426        H  0.22055512  0.15505627  0.79307764    -0.06030
C427        C  0.25717718  0.26572994  0.76831105     0.87520
C428        C  0.16837577  0.23763750  0.79671030     0.88110
C429        C  0.22574274  0.17653304  0.79046480     0.88160
H430        H  0.25626595  0.21746350  0.68270476    -0.06000
O431        O  0.20338483  0.25523221  0.69191676    -0.75030
Mg432      Mg  0.27469020  0.20851381  0.76811071     1.58000
H433        H  0.20200769  0.29377118  0.70766265    -0.06020
C434        C  0.21727074  0.30709866  0.82738762     0.93140
O435        O  0.26309403  0.22901192  0.84056703    -0.82260
C436        C  0.28331302  0.21310868  0.83622863     0.93200
O437        O  0.12193585  0.27793119  0.74256017    -0.82250
Mg438      Mg  0.19610496  0.20908386  0.68495564     1.58180
O439        O  0.23003318  0.28455258  0.83090952    -0.80580
O440        O  0.21803990  0.13681652  0.69478673    -0.82270
C441        C  0.94589726  0.28254605  0.68667309     0.01050
C442        C  0.97370135  0.27981969  0.68969835     0.01050
C443        C  0.28355563  0.29546654  0.01455626     0.01050
C444        C  0.27951023  0.29445629  0.98661785     0.01050
C445        C  0.26296074  0.98751592  0.30361324     0.01050
C446        C  0.26288317  0.95933696  0.30364750     0.01050
C447        C  0.23406535  0.34558505  0.10797701     0.03610
C448        C  0.22185022  0.37117433  0.11286461    -0.12530
C449        C  0.21318383  0.37788850  0.13948603     0.01120
C450        C  0.21886014  0.36002325  0.16141311    -0.11060
C451        C  0.22858974  0.33357700  0.15658061     0.03610
C452        C  0.23709583  0.32671792  0.12979205    -0.10480
H453        H  0.21760579  0.38489854  0.09583406     0.09200
H454        H  0.21187811  0.36541583  0.18186686     0.06730
H455        H  0.24496104  0.30638241  0.12554371     0.06580
C456        C  0.32081623  0.22211058  0.09756693     0.03610
C457        C  0.34680939  0.21088121  0.10337470    -0.12530
C458        C  0.35276162  0.20114095  0.12997362     0.01120
C459        C  0.33251172  0.20190173  0.15053708    -0.11060
C460        C  0.30683083  0.21369432  0.14529853     0.03610
C461        C  0.30172148  0.22452725  0.11916648    -0.10480
H462        H  0.36231299  0.20960002  0.08748390     0.09200
H463        H  0.33729342  0.19427376  0.17093096     0.06730
H464        H  0.28263295  0.23526585  0.11567602     0.06580
C465        C  0.32557733  0.08038588  0.26954301     0.03610
C466        C  0.35296629  0.08548931  0.26159394    -0.12530
C467        C  0.36157624  0.11244537  0.25509391     0.01120
C468        C  0.34223734  0.13381244  0.25557919    -0.11060
C469        C  0.31527054  0.12928229  0.26415630     0.03610
C470        C  0.30728020  0.10260579  0.27173784    -0.10480
H471        H  0.36714637  0.06858920  0.25955427     0.09200
H472        H  0.34807444  0.15413497  0.24846238     0.06730
H473        H  0.28615989  0.09869423  0.27770374     0.06580
C474        C  0.18926777  0.10510489  0.39362727     0.03610
C475        C  0.20001162  0.07901420  0.38797532    -0.12530
C476        C  0.21008113  0.07328421  0.36161410     0.01120
C477        C  0.20913320  0.09343574  0.34103170    -0.11060
C478        C  0.19848984  0.11955602  0.34637263     0.03610
C479        C  0.18853616  0.12523469  0.37285120    -0.10480
H480        H  0.20045195  0.06336809  0.40385009     0.09200
H481        H  0.21724083  0.08871240  0.32083380     0.06730
H482        H  0.18043440  0.14538376  0.37752769     0.06580
C483        C  0.06629206  0.24588863  0.36906201     0.03610
C484        C  0.07033806  0.23343337  0.39466567    -0.12530
C485        C  0.09641479  0.22383681  0.40188560     0.01120
C486        C  0.11814092  0.22578612  0.38297849    -0.11060
C487        C  0.11423590  0.23765883  0.35698100     0.03610
C488        C  0.08822516  0.24820030  0.35039062    -0.10480
H489        H  0.05338393  0.23152789  0.40899820     0.09200
H490        H  0.13790988  0.21715623  0.38833754     0.06730
H491        H  0.08457482  0.25721765  0.33033187     0.06580
C492        C  0.05462844  0.33318730  0.24403482     0.03610
C493        C  0.06002281  0.36035491  0.23567458    -0.12530
C494        C  0.08689256  0.36867285  0.22918649     0.01120
C495        C  0.10841400  0.34940798  0.23073795    -0.11060
C496        C  0.10336449  0.32202020  0.23838208     0.03610
C497        C  0.07650717  0.31441795  0.24556714    -0.10480
H498        H  0.04354457  0.37518372  0.23479740     0.09200
H499        H  0.12929065  0.35609675  0.22701318     0.06730
H500        H  0.07273458  0.29385363  0.25328609     0.06580
O501        O  0.22996209  0.19928562  0.29190132    -0.87860
C502        C  0.22604416  0.18017094  0.21027689     0.88170
Mg503      Mg  0.19413510  0.20936826  0.31551767     1.58150
O504        O  0.25233748  0.24611400  0.22522303    -0.87590
O505        O  0.26987977  0.21702053  0.28138416    -0.74920
C506        C  0.12616126  0.30195955  0.24171618     0.93220
O507        O  0.18112170  0.16821770  0.25939265    -0.74730
O508        O  0.12217362  0.28126551  0.25732398    -0.82240
Mg509      Mg  0.22714889  0.16235185  0.26729365     1.57960
C510        C  0.22443783  0.31212754  0.17795576     0.93140
O511        O  0.27163675  0.14860430  0.27359592    -0.80500
H512        H  0.27974347  0.27062413  0.24365419    -0.05850
C513        C  0.17072169  0.24338256  0.20409979     0.88080
O514        O  0.20194079  0.25565426  0.31020720    -0.75010
O515        O  0.23805137  0.18617903  0.23181276    -0.87780
O516        O  0.23644015  0.28914631  0.17522909    -0.80590
C517        C  0.28617915  0.21709773  0.16744249     0.93260
C518        C  0.29461407  0.15135420  0.26137731     0.93110
Mg519      Mg  0.19483740  0.29199108  0.23540698     1.57950
O520        O  0.14924896  0.30615269  0.22975933    -0.80510
O521        O  0.24084246  0.28535430  0.24362496    -0.74750
O522        O  0.28937463  0.20454513  0.19021694    -0.80590
O523        O  0.21643589  0.13755592  0.30479974    -0.82300
O524        O  0.13304652  0.24851448  0.31304177    -0.80620
C525        C  0.25864722  0.26745494  0.23742759     0.87550
O526        O  0.18371479  0.26802621  0.27105197    -0.87760
O527        O  0.19225412  0.25502438  0.21091412    -0.87870
O528        O  0.15271975  0.23647357  0.22169582    -0.74920
Mg529      Mg  0.27567137  0.20998271  0.23514004     1.57970
O530        O  0.26623101  0.23338983  0.16346417    -0.82300
H531        H  0.25478490  0.21570400  0.32024661    -0.06020
O532        O  0.17013072  0.20738062  0.27808500    -0.87570
H533        H  0.14222909  0.18289743  0.26036712    -0.05850
H534        H  0.20140508  0.29503408  0.29646462    -0.06030
C535        C  0.16347309  0.18604501  0.26608595     0.87520
C536        C  0.25163577  0.21053479  0.29886969     0.88110
C537        C  0.19556373  0.27391045  0.29270841     0.88160
H538        H  0.16753677  0.23815525  0.18274109    -0.06000
O539        O  0.21955769  0.19833361  0.19274673    -0.75030
Mg540      Mg  0.14669690  0.24337474  0.26795034     1.58000
H541        H  0.22003948  0.15905147  0.20674341    -0.06020
C542        C  0.20069401  0.14144566  0.32524267     0.93140
O543        O  0.15606558  0.21954926  0.33991346    -0.82260
C544        C  0.13597655  0.23564007  0.33572033     0.93200
O545        O  0.29959610  0.17155689  0.24542288    -0.82250
Mg546      Mg  0.22843293  0.24436510  0.18776855     1.58180
O547        O  0.18823161  0.16413105  0.32880266    -0.80580
O548        O  0.20727484  0.31646446  0.19731353    -0.82270
C549        C  0.97243305  0.28780050  0.31288008     0.01050
C550        C  0.94450247  0.28436511  0.31286114     0.01050
C551        C  0.65640208  0.27592546  0.98540633     0.01050
C552        C  0.65716898  0.27539998  0.01343860     0.01050
C553        C  0.82460524  0.36225546  0.22803469     0.03610
C554        C  0.85021838  0.35725240  0.24062717    -0.12530
C555        C  0.85779775  0.33007380  0.24744896     0.01120
C556        C  0.83879671  0.30863761  0.24310354    -0.11060
C557        C  0.81394870  0.31332961  0.22985906     0.03610
C558        C  0.80781333  0.33976394  0.22086119    -0.10480
H559        H  0.86369157  0.37429359  0.24550324     0.09200
H560        H  0.84307081  0.28813457  0.25068783     0.06730
H561        H  0.78823653  0.34331766  0.21086559     0.06580
C562        C  0.81821823  0.21890452  0.39723537     0.03610
C563        C  0.84538206  0.22799463  0.39253550    -0.12530
C564        C  0.85292780  0.23814164  0.36646010     0.01120
C565        C  0.83298454  0.24041297  0.34573609    -0.11060
C566        C  0.80611043  0.23109845  0.35007786     0.03610
C567        C  0.79892172  0.22019178  0.37573727    -0.10480
H568        H  0.86062752  0.22638005  0.40867087     0.09200
H569        H  0.83889600  0.24802623  0.32559676     0.06730
H570        H  0.77825973  0.21236866  0.37893987     0.06580
C571        C  0.56210851  0.20174191  0.12847027     0.03610
C572        C  0.56958449  0.21221897  0.10243381    -0.12530
C573        C  0.59723013  0.21913229  0.09700175     0.01120
C574        C  0.61655230  0.21746934  0.11842373    -0.11060
C575        C  0.60976615  0.20623277  0.14378287     0.03610
C576        C  0.58275113  0.19754332  0.14846761    -0.10480
H577        H  0.55412217  0.21559393  0.08692277     0.09200
H578        H  0.63738537  0.22485313  0.11528738     0.06730
H579        H  0.57724291  0.18962114  0.16859998     0.06580
C580        C  0.70883937  0.37087077  0.13747533     0.03610
C581        C  0.70277156  0.36417430  0.11009012    -0.12530
C582        C  0.69128600  0.33845326  0.10385532     0.01120
C583        C  0.68643762  0.31932698  0.12497234    -0.11060
C584        C  0.69380570  0.32528576  0.15217927     0.03610
C585        C  0.70485479  0.35121698  0.15834571    -0.10480
H586        H  0.70678996  0.37889758  0.09381181     0.09200
H587        H  0.67849819  0.29910635  0.11985516     0.06730
H588        H  0.71097999  0.35592303  0.17924982     0.06580
C589        C  0.56061194  0.10745807  0.24354574     0.03610
C590        C  0.58109011  0.12760396  0.24633045    -0.12530
C591        C  0.60677895  0.12097083  0.25724952     0.01120
C592        C  0.61207481  0.09382157  0.26490120    -0.11060
C593        C  0.59185674  0.07339141  0.26201789     0.03610
C594        C  0.56586917  0.08025060  0.25157803    -0.10480
H595        H  0.57695915  0.14850276  0.23981127     0.09200
H596        H  0.63192549  0.08849152  0.27344698     0.06730
H597        H  0.54986365  0.06476137  0.25012428     0.06580
C598        C  0.73325527  0.10252902  0.38842751     0.03610
C599        C  0.73830812  0.11933882  0.36546730    -0.12530
C600        C  0.72909991  0.11166497  0.33931691     0.01120
C601        C  0.71734680  0.08569648  0.33566177    -0.11060
C602        C  0.71546517  0.06694463  0.35772162     0.03610
C603        C  0.72317467  0.07573336  0.38427841    -0.10480
H604        H  0.74668485  0.13979954  0.36851205     0.09200
H605        H  0.70897102  0.08039764  0.31571711     0.06730
H606        H  0.72001668  0.06236081  0.40181467     0.06580
O607        O  0.66003804  0.21751711  0.23223537    -0.87860
C608        C  0.71551593  0.15471785  0.23877001     0.88170
Mg609      Mg  0.66633850  0.25110017  0.20406384     1.58150
O610        O  0.71306961  0.20014604  0.29479564    -0.87590
O611        O  0.65164894  0.20701341  0.27521331    -0.74920
C612        C  0.79206017  0.29244115  0.23046912     0.93220
O613        O  0.69812875  0.19198398  0.18435382    -0.74730
O614        O  0.77431422  0.29199386  0.21136803    -0.82240
Mg615      Mg  0.66451382  0.17753869  0.21449758     1.57960
C616        C  0.78675049  0.22990197  0.32681420     0.93140
O617        O  0.62922553  0.16039242  0.24017125    -0.80500
H618        H  0.69254086  0.21879265  0.32501293    -0.05850
C619        C  0.77287199  0.21375988  0.23747118     0.88080
O620        O  0.68236666  0.27851557  0.23914960    -0.75010
O621        O  0.69526825  0.16847015  0.24518944    -0.87780
O622        O  0.77255289  0.20813948  0.32346964    -0.80590
C623        C  0.72757600  0.13284056  0.31768645     0.93260
C624        C  0.62879852  0.14172375  0.25841608     0.93110
Mg625      Mg  0.75466388  0.25843575  0.27633621     1.57950
O626        O  0.79021146  0.27704580  0.25158014    -0.80510
O627        O  0.72007196  0.24332404  0.30517740    -0.74750
O628        O  0.70619683  0.13419774  0.30258813    -0.80590
O629        O  0.63184701  0.18666188  0.18263573    -0.82300
O630        O  0.71555508  0.29999420  0.18734364    -0.80620
C631        C  0.70799664  0.22042421  0.30912314     0.87550
O632        O  0.72526082  0.26698379  0.24468981    -0.87760
O633        O  0.76016532  0.21851602  0.25892656    -0.87870
O634        O  0.76776338  0.22657675  0.21527299    -0.74920
Mg635      Mg  0.68072001  0.17114116  0.28651865     1.57970
O636        O  0.74660007  0.15067018  0.31633932    -0.82300
H637        H  0.63158658  0.23708030  0.25434806    -0.06020
O638        O  0.70623493  0.23469255  0.19567023    -0.87570
H639        H  0.72523847  0.21664091  0.16410557    -0.05850
H640        H  0.70781585  0.29673059  0.26682371    -0.06030
C641        C  0.71040568  0.21478396  0.18055522     0.87520
C642        C  0.64705771  0.22125564  0.25373241     0.88110
C643        C  0.70549984  0.28150033  0.25083619     0.88160
H644        H  0.78823957  0.19781992  0.23742567    -0.06000
O645        O  0.73846973  0.15791945  0.25085121    -0.75030
Mg646      Mg  0.73959489  0.26252918  0.20331317     1.58000
H647        H  0.71375883  0.13989078  0.22234219    -0.06020
C648        C  0.63022615  0.20678766  0.16611149     0.93140
O649        O  0.67417561  0.28589858  0.17371996    -0.82260
C650        C  0.69409925  0.30289988  0.17267859     0.93200
O651        O  0.64735568  0.14005370  0.27668412    -0.82250
Mg652      Mg  0.75358374  0.18514678  0.28674898     1.58180
O653        O  0.64535562  0.22808933  0.16856003    -0.80580
O654        O  0.78573302  0.24983402  0.30994823    -0.82270
C655        C  0.63832310  0.98610098  0.32452541     0.01050
C656        C  0.63631970  0.95810228  0.32336043     0.01050
C657        C  0.69036990  0.86575804  0.36767905     0.03610
C658        C  0.70036820  0.85871126  0.39369464    -0.12530
C659        C  0.70947726  0.83200088  0.39868006     0.01120
C660        C  0.70863148  0.81243146  0.37757155    -0.11060
C661        C  0.69869911  0.81924053  0.35132029     0.03610
C662        C  0.68950956  0.84609904  0.34659021    -0.10480
H663        H  0.70078504  0.87383736  0.41000870     0.09200
H664        H  0.71619851  0.79192308  0.38167117     0.06730
H665        H  0.68204746  0.85194134  0.32650070     0.06580
C666        C  0.59842888  0.87278460  0.24918072     0.03610
C667        C  0.57084303  0.86330026  0.24813186    -0.12530
C668        C  0.56446783  0.83764684  0.23601996     0.01120
C669        C  0.58602609  0.82083433  0.22703120    -0.11060
C670        C  0.61331058  0.82959572  0.22916733     0.03610
C671        C  0.61861560  0.85681315  0.23607278    -0.10480
H672        H  0.55445751  0.87510993  0.25721302     0.09200
H673        H  0.58163512  0.80030038  0.21962411     0.06730
H674        H  0.63949032  0.86417813  0.23400881     0.06580
C675        C  0.81990639  0.73537804  0.39068093     0.03610
C676        C  0.84666819  0.72554841  0.38656429    -0.12530
C677        C  0.85579304  0.71922001  0.35997931     0.01120
C678        C  0.83803558  0.72268720  0.33749453    -0.11060
C679        C  0.81156733  0.73301246  0.34114626     0.03610
C680        C  0.80301833  0.74019424  0.36772279    -0.10480
H681        H  0.86018193  0.72254303  0.40395360     0.09200
H682        H  0.84465229  0.71648693  0.31715943     0.06730
H683        H  0.78252092  0.74815832  0.37082404     0.06580
C684        C  0.84880309  0.60516841  0.26854445     0.03610
C685        C  0.84377599  0.57787886  0.26025483    -0.12530
C686        C  0.81713729  0.56978633  0.25222322     0.01120
C687        C  0.79567734  0.58886938  0.25268777    -0.11060
C688        C  0.80021122  0.61589595  0.26113949     0.03610
C689        C  0.82670219  0.62367912  0.26974479    -0.10480
H690        H  0.86052609  0.56337806  0.25912124     0.09200
H691        H  0.77546533  0.58273324  0.24551061     0.06730
H692        H  0.83058995  0.64468555  0.27605261     0.06580
C693        C  0.59003567  0.70897222  0.10243240     0.03610
C694        C  0.60577995  0.70290706  0.12589517    -0.12530
C695        C  0.59848218  0.71283279  0.15184521     0.01120
C696        C  0.57372028  0.72711584  0.15462491    -0.11060
C697        C  0.55689295  0.73221453  0.13173458     0.03610
C698        C  0.56514294  0.72327769  0.10548016    -0.10480
H699        H  0.62513371  0.69229521  0.12340258     0.09200
H700        H  0.56782325  0.73517011  0.17452133     0.06730
H701        H  0.55283870  0.72821954  0.08760583     0.06580
C702        C  0.69485007  0.60173676  0.10104090     0.03610
C703        C  0.70471943  0.57581047  0.10908197    -0.12530
C704        C  0.71855005  0.57285937  0.13440010     0.01120
C705        C  0.72188942  0.59592529  0.15147776    -0.11060
C706        C  0.71106875  0.62155767  0.14411068     0.03610
C707        C  0.69782927  0.62424222  0.11872784    -0.10480
H708        H  0.70162393  0.55821309  0.09582876     0.09200
H709        H  0.73170494  0.59338612  0.17132283     0.06730
H710        H  0.68974118  0.64401533  0.11249098     0.06580
O711        O  0.67917157  0.74089058  0.20522471    -0.87860
C712        C  0.66013348  0.74096467  0.28665740     0.88170
Mg713      Mg  0.68666935  0.70371009  0.18291537     1.58150
O714        O  0.72725020  0.76384545  0.27102377    -0.87590
O715        O  0.69900209  0.78024084  0.21434243    -0.74920
C716        C  0.77853366  0.63682957  0.25746604     0.93220
O717        O  0.64643897  0.69498312  0.24012888    -0.74730
O718        O  0.75838436  0.63191845  0.24143781    -0.82240
Mg719      Mg  0.64245490  0.74100373  0.23000233     1.57960
C720        C  0.79128032  0.73182049  0.31854749     0.93140
O721        O  0.63182482  0.78567279  0.22060130    -0.80500
H722        H  0.75263976  0.79018013  0.25210837    -0.05850
C723        C  0.72161143  0.68243319  0.29381098     0.88080
O724        O  0.73338989  0.70996530  0.18622506    -0.75010
O725        O  0.66684397  0.75209631  0.26483974    -0.87780
O726        O  0.76912538  0.74531747  0.32099918    -0.80590
C727        C  0.70041917  0.79894102  0.32869551     0.93260
C728        C  0.63527198  0.80892869  0.23195984     0.93110
Mg729      Mg  0.76993188  0.70470877  0.26120370     1.57950
O730        O  0.78173116  0.66004843  0.26901447    -0.80510
O731        O  0.76564089  0.75067641  0.25202714    -0.74750
O732        O  0.68824610  0.80336403  0.30580272    -0.80590
O733        O  0.61652139  0.73046316  0.19344471    -0.82300
O734        O  0.72452889  0.64235576  0.18624411    -0.80620
C735        C  0.74868511  0.76924206  0.25851497     0.87550
O736        O  0.74532426  0.69357035  0.22624865    -0.87760
O737        O  0.73297632  0.70365120  0.28565525    -0.87870
O738        O  0.71433212  0.66372422  0.27722770    -0.74920
Mg739      Mg  0.69238568  0.78837514  0.26041282     1.57970
O740        O  0.71524883  0.77790170  0.33254105    -0.82300
H741        H  0.69711341  0.76379306  0.17608241    -0.06020
O742        O  0.68468245  0.68109921  0.22123582    -0.87570
H743        H  0.65939851  0.65543491  0.24122684    -0.05850
H744        H  0.77285627  0.70859870  0.19959779    -0.06030
C745        C  0.66337221  0.67616285  0.23417438     0.87520
C746        C  0.69166062  0.76168793  0.19753377     0.88110
C747        C  0.75154733  0.70392700  0.20390543     0.88160
H748        H  0.71702735  0.68012364  0.31544448    -0.06000
O749        O  0.67789407  0.73355403  0.30415241    -0.75030
Mg750      Mg  0.72036755  0.65686600  0.23104867     1.58000
H751        H  0.63869544  0.73641507  0.29041742    -0.06020
C752        C  0.61928919  0.71330327  0.17409001     0.93140
O753        O  0.69435559  0.66438793  0.15991436    -0.82260
C754        C  0.71044374  0.64434162  0.16422851     0.93200
O755        O  0.65512064  0.81363310  0.24844846    -0.82250
Mg756      Mg  0.72422325  0.73996903  0.30852323     1.58180
O757        O  0.64081498  0.69867698  0.17176390    -0.80580
O758        O  0.79524168  0.71540195  0.29866441    -0.82270
C759        C  0.97103477  0.66027840  0.31218128     0.01050
C760        C  0.94299221  0.65960685  0.31321382     0.01050
C761        C  0.18575442  0.84319808  0.39440734     0.03610
C762        C  0.19644098  0.86888839  0.38639298    -0.12530
C763        C  0.20564564  0.87298990  0.35931719     0.01120
C764        C  0.20458289  0.85122181  0.34044526    -0.11060
C765        C  0.19334270  0.82571030  0.34785940     0.03610
C766        C  0.18336263  0.82204977  0.37475330    -0.10480
H767        H  0.19763270  0.88551758  0.40112212     0.09200
H768        H  0.21244185  0.85428898  0.31979417     0.06730
H769        H  0.17456765  0.80244437  0.38065911     0.06580
C770        C  0.35703711  0.83522012  0.24985868     0.03610
C771        C  0.33864061  0.81329094  0.25445524    -0.12530
C772        C  0.31246798  0.81815758  0.26535920     0.01120
C773        C  0.30507820  0.84503338  0.27216724    -0.11060
C774        C  0.32254095  0.86737669  0.26621309     0.03610
C775        C  0.34860427  0.86232092  0.25500333    -0.10480
H776        H  0.34429385  0.79265006  0.24844228     0.09200
H777        H  0.28463519  0.84886795  0.28009155     0.06730
H778        H  0.36187004  0.87928259  0.24922211     0.06580
C779        C  0.23009481  0.60301581  0.10559954     0.03610
C780        C  0.21880941  0.57736317  0.11268557    -0.12530
C781        C  0.20908187  0.57278250  0.13953743     0.01120
C782        C  0.21014608  0.59403503  0.15895091    -0.11060
C783        C  0.22167149  0.61954015  0.15202285     0.03610
C784        C  0.23229458  0.62360663  0.12562082    -0.10480
H785        H  0.21669622  0.56147567  0.09725062     0.09200
H786        H  0.20131576  0.59090265  0.17919315     0.06730
H787        H  0.24067136  0.64354406  0.11999492     0.06580
C788        C  0.08703529  0.58172402  0.22450522     0.03610
C789        C  0.06207763  0.58661575  0.23810193    -0.12530
C790        C  0.05543072  0.61340453  0.24636568     0.01120
C791        C  0.07410676  0.63505832  0.24185562    -0.11060
C792        C  0.09913070  0.63035998  0.22856601     0.03610
C793        C  0.10485829  0.60393606  0.21891975    -0.10480
H794        H  0.04851856  0.56963871  0.24325927     0.09200
H795        H  0.06968599  0.65529462  0.24995389     0.06730
H796        H  0.12452896  0.60005031  0.20926223     0.06580
C797        C  0.09881769  0.72038589  0.39707944     0.03610
C798        C  0.07067921  0.71986594  0.38924876    -0.12530
C799        C  0.06275336  0.70876592  0.36353643     0.01120
C800        C  0.08318863  0.70026893  0.34506031    -0.11060
C801        C  0.11084103  0.70249618  0.35185001     0.03610
C802        C  0.11816949  0.70945665  0.37848611    -0.10480
H803        H  0.05512623  0.72876532  0.40228309     0.09200
H804        H  0.07762852  0.69341854  0.32459923     0.06730
H805        H  0.13972182  0.70809880  0.38366242     0.06580
C806        C  0.31859594  0.72454279  0.09860792     0.03610
C807        C  0.34517994  0.73394587  0.10519863    -0.12530
C808        C  0.34970827  0.74899229  0.12945025     0.01120
C809        C  0.32744594  0.75387415  0.14726429    -0.11060
C810        C  0.30153108  0.74227636  0.14225112     0.03610
C811        C  0.29716087  0.72802011  0.11764571    -0.10480
H812        H  0.36223885  0.72943102  0.09167177     0.09200
H813        H  0.33110373  0.76446470  0.16652193     0.06730
H814        H  0.27721632  0.71885987  0.11359962     0.06580
O815        O  0.25600657  0.72529170  0.23217574    -0.87860
C816        C  0.20234086  0.78757964  0.24822999     0.88170
Mg817      Mg  0.24771149  0.69392872  0.20250767     1.58150
O818        O  0.20589776  0.73574602  0.29878492    -0.87590
O819        O  0.26663180  0.73004872  0.27560227    -0.74920
C820        C  0.12155831  0.65089650  0.22971586     0.93220
O821        O  0.21490020  0.75444543  0.18984735    -0.74730
O822        O  0.13907881  0.65205776  0.21039921    -0.82240
Mg823      Mg  0.25081362  0.76660802  0.21826294     1.57960
C824        C  0.13138665  0.70427020  0.32978403     0.93140
O825        O  0.28815990  0.78264403  0.24286958    -0.80500
H826        H  0.22655782  0.71345295  0.32642127    -0.05850
C827        C  0.14330043  0.72898325  0.24296763     0.88080
O828        O  0.23310996  0.66460986  0.23676801    -0.75010
O829        O  0.22268174  0.77296672  0.25200060    -0.87780
O830        O  0.14717625  0.72530059  0.32911699    -0.80590
C831        C  0.19432170  0.80246819  0.32821727     0.93260
C832        C  0.29074800  0.79691004  0.26464177     0.93110
Mg833      Mg  0.16139247  0.68046828  0.27654779     1.57950
O834        O  0.12413298  0.66527818  0.25138795    -0.80510
O835        O  0.19728663  0.69203025  0.30559030    -0.74750
O836        O  0.21557265  0.80004294  0.31308743    -0.80590
O837        O  0.28040330  0.75968121  0.18276291    -0.82300
O838        O  0.19756963  0.64629445  0.18432885    -0.80620
C839        C  0.21056365  0.71396308  0.31101500     0.87550
O840        O  0.18987034  0.67431208  0.24376027    -0.87760
O841        O  0.15683721  0.72222091  0.26339369    -0.87870
O842        O  0.14684124  0.71760226  0.21971248    -0.74920
Mg843      Mg  0.23906785  0.76460831  0.29208522     1.57970
O844        O  0.17464116  0.78513963  0.32733250    -0.82300
H845        H  0.28552776  0.70315398  0.25007755    -0.06020
O846        O  0.20731984  0.71060288  0.19695174    -0.87570
H847        H  0.18627604  0.73219499  0.16906526    -0.05850
H848        H  0.20882511  0.64396306  0.26385287    -0.06030
C849        C  0.20228103  0.73215683  0.18447435     0.87520
C850        C  0.27016325  0.71893975  0.25226862     0.88110
C851        C  0.21027077  0.66012793  0.24862970     0.88160
H852        H  0.12837620  0.74523145  0.24482511    -0.06000
O853        O  0.17992023  0.78323852  0.26099302    -0.75030
Mg854      Mg  0.17401539  0.68228024  0.20359305     1.58000
H855        H  0.20352160  0.80419012  0.23346970    -0.06020
C856        C  0.28115387  0.74073850  0.16480157     0.93140
O857        O  0.23938766  0.66026866  0.17181423    -0.82260
C858        C  0.21969758  0.64305839  0.17080045     0.93200
O859        O  0.27362873  0.79526149  0.28435348    -0.82250
Mg860      Mg  0.16552048  0.75259594  0.29450945     1.58180
O861        O  0.26639454  0.71912360  0.16685742    -0.80580
O862        O  0.13122053  0.68645433  0.31085825    -0.82270
C863        C  0.27764113  0.65473392  0.98617700     0.01050
C864        C  0.28131016  0.65174315  0.01384688     0.01050
C865        C  0.32760878  0.68520199  0.06731635    -0.11780
C866        C  0.31298508  0.70931276  0.07282390     0.05220
C867        C  0.29087923  0.71668164  0.05553147    -0.07070
C868        C  0.28236259  0.69840981  0.03498017    -0.07810
C869        C  0.29568391  0.67333157  0.03056195    -0.02370
C870        C  0.31943743  0.66725824  0.04616405     0.04450
N871        N  0.33516819  0.64290522  0.04112929     0.66960
H872        H  0.34488427  0.67982047  0.08025162     0.15860
H873        H  0.26442464  0.70337262  0.02315523     0.15570
N874        N  0.27648793  0.74222080  0.05900823     0.74660
O875        O  0.34791012  0.63136583  0.06055155    -0.38790
O876        O  0.33956905  0.63515757  0.01680378    -0.38730
O877        O  0.28926139  0.76364035  0.06632735    -0.39440
O878        O  0.25151041  0.74409698  0.05229649    -0.39500
C879        C  0.26037814  0.59674058  0.06493177    -0.11780
C880        C  0.23788864  0.60992086  0.07702734     0.05220
C881        C  0.22623158  0.63299755  0.06390777    -0.07070
C882        C  0.23992079  0.64470825  0.04148253    -0.07810
C883        C  0.26380519  0.63300141  0.03056514    -0.02370
C884        C  0.27327287  0.60775017  0.04137963     0.04450
N885        N  0.29625675  0.59367023  0.02949533     0.66960
H886        H  0.26873719  0.57862001  0.07474255     0.15860
H887        H  0.23239933  0.66377220  0.03288034     0.15570
N888        N  0.20128370  0.64534680  0.07384285     0.74660
O889        O  0.31064064  0.57770585  0.04398165    -0.38790
O890        O  0.30024646  0.59445412  0.00387962    -0.38730
O891        O  0.18297790  0.63077138  0.08522817    -0.39440
O892        O  0.19616163  0.67024415  0.06872790    -0.39500
C893        C  0.00427833  0.69890242  0.31484096    -0.11780
C894        C  0.98812044  0.67966905  0.32918818     0.05220
C895        C  0.99286815  0.67611738  0.35779916    -0.07070
C896        C  0.01572309  0.68918582  0.37007680    -0.07810
C897        C  0.03357094  0.70587622  0.35460486    -0.02370
C898        C  0.02598204  0.71307799  0.32746354     0.04450
N899        N  0.04129380  0.73336770  0.31204079     0.66960
H900        H  0.00062061  0.70213056  0.29316989     0.15860
H901        H  0.02118814  0.68393227  0.39102873     0.15570
N902        N  0.97644888  0.65785323  0.37430964     0.74660
O903        O  0.04050457  0.73360371  0.28608881    -0.38790
O904        O  0.05380682  0.75254723  0.32431191    -0.38730
O905        O  0.97010092  0.63426334  0.36568954    -0.39440
O906        O  0.97138177  0.66386048  0.39902218    -0.39500
C907        C  0.00907729  0.63306350  0.24955845    -0.11780
C908        C  0.03052353  0.61905345  0.26254662     0.05220
C909        C  0.02962236  0.61474096  0.29128237    -0.07070
C910        C  0.00788162  0.62604641  0.30630848    -0.07810
C911        C  0.98759105  0.64225445  0.29374170    -0.02370
C912        C  0.98789818  0.64517603  0.26475474     0.04450
N913        N  0.96884080  0.66242484  0.25050058     0.66960
H914        H  0.01010925  0.63662788  0.22756933     0.15860
H915        H  0.00808102  0.62410529  0.32847990     0.15570
N916        N  0.05116708  0.60061935  0.30586995     0.74660
O917        O  0.95864782  0.65448188  0.22799082    -0.38790
O918        O  0.96654410  0.68731154  0.25718845    -0.38730
O919        O  0.07588281  0.60253251  0.29822455    -0.39440
O920        O  0.04590381  0.58851661  0.32826822    -0.39500
C921        C  0.89239897  0.60250749  0.29572434    -0.11780
C922        C  0.87705574  0.61532330  0.27496172     0.05220
C923        C  0.88737821  0.63982619  0.26298626    -0.07070
C924        C  0.91065352  0.65251518  0.27443606    -0.07810
C925        C  0.92523315  0.64074503  0.29634774    -0.02370
C926        C  0.91651980  0.61472172  0.30628038     0.04450
N927        N  0.93097094  0.60112548  0.32801051     0.66960
H928        H  0.88489965  0.58347617  0.30465409     0.15860
H929        H  0.91677126  0.67244663  0.26682086     0.15570
N930        N  0.87409714  0.65240667  0.23970825     0.74660
O931        O  0.91778199  0.58919143  0.34698184    -0.38790
O932        O  0.95628740  0.59648203  0.32544411    -0.38730
O933        O  0.87558758  0.67806694  0.23605476    -0.39440
O934        O  0.86327648  0.63770843  0.22124443    -0.39500
C935        C  0.89946106  0.71991764  0.33440846    -0.11780
C936        C  0.88323938  0.70755571  0.35480171     0.05220
C937        C  0.89070705  0.68159211  0.36516043    -0.07070
C938        C  0.91254948  0.66749266  0.35308249    -0.07810
C939        C  0.92719915  0.67877986  0.33085922    -0.02370
C940        C  0.92107685  0.70577418  0.32210716     0.04450
N941        N  0.93432798  0.71811356  0.29890138     0.66960
H942        H  0.89379753  0.73987956  0.32632540     0.15860
H943        H  0.91666486  0.64668761  0.35973385     0.15570
N944        N  0.87443569  0.66791636  0.38555831     0.74660
O945        O  0.92020225  0.72340582  0.27779796    -0.38790
O946        O  0.95627760  0.73142653  0.30270638    -0.38730
O947        O  0.86114903  0.64650945  0.37922117    -0.39440
O948        O  0.87790960  0.67369090  0.41059594    -0.39500
C949        C  0.68022621  0.93825683  0.34174576    -0.11780
C950        C  0.65138102  0.94008278  0.34334840     0.05220
C951        C  0.63661849  0.91900408  0.35705440    -0.07070
C952        C  0.65053329  0.89592494  0.36673159    -0.07810
C953        C  0.67877643  0.89310492  0.36281980    -0.02370
C954        C  0.69419175  0.91477597  0.35095834     0.04450
N955        N  0.72335536  0.91248325  0.34620517     0.66960
H956        H  0.69161544  0.95354172  0.33030268     0.15860
H957        H  0.63895616  0.87920523  0.37599314     0.15570
N958        N  0.60721962  0.91970523  0.35927333     0.74660
O959        O  0.73483462  0.92658351  0.32759313    -0.38790
O960        O  0.73811346  0.89769571  0.36152716    -0.38730
O961        O  0.59326409  0.89794291  0.35647721    -0.39440
O962        O  0.59545750  0.94117625  0.36749588    -0.39500
C963        C  0.64369365  0.92333154  0.28808452    -0.11780
C964        C  0.62515867  0.94228335  0.29907468     0.05220
C965        C  0.59730005  0.94064337  0.29024888    -0.07070
C966        C  0.58936291  0.91912667  0.27216986    -0.07810
C967        C  0.60738242  0.89733040  0.26592155    -0.02370
C968        C  0.63452891  0.89908136  0.27636224     0.04450
N969        N  0.65154605  0.87530994  0.27990721     0.66960
H970        H  0.66523106  0.92467581  0.29327399     0.15860
H971        H  0.56853983  0.91863538  0.26446876     0.15570
N972        N  0.57684356  0.95986302  0.29913046     0.74660
O973        O  0.67713148  0.87692178  0.27586428    -0.38790
O974        O  0.64169370  0.85403172  0.29118330    -0.38730
O975        O  0.55713771  0.96595104  0.28342339    -0.39440
O976        O  0.57655997  0.96853528  0.32350745    -0.39500
C977        C  0.68441588  0.00666872  0.32029593    -0.11780
C978        C  0.66249454  0.99978822  0.33783126     0.05220
C979        C  0.66258002  0.01014662  0.36505601    -0.07070
C980        C  0.68142850  0.03101388  0.37186887    -0.07810
C981        C  0.70154240  0.03999451  0.35314211    -0.02370
C982        C  0.70484425  0.02543973  0.32822559     0.04450
N983        N  0.72836229  0.02992993  0.31072691     0.66960
H984        H  0.68521865  0.99758097  0.29999004     0.15860
H985        H  0.67941165  0.04119702  0.39149341     0.15570
N986        N  0.64340346  0.00083430  0.38562528     0.74660
O987        O  0.72713399  0.02443672  0.28539685    -0.38790
O988        O  0.75128200  0.03652491  0.32102131    -0.38730
O989        O  0.63565604  0.97612177  0.38622771    -0.39440
O990        O  0.63730098  0.01612488  0.40562597    -0.39500
C991        C  0.59442811  0.04656833  0.30373519    -0.12100
C992        C  0.59708105  0.04671176  0.27523156     0.05220
C993        C  0.61066306  0.02476416  0.26191501    -0.07070
C994        C  0.62304921  0.00421678  0.27826234    -0.07810
C995        C  0.62142388  0.00491590  0.30716478    -0.02370
C996        C  0.60652486  0.02630652  0.31973539     0.04450
N997        N  0.60459063  0.02877240  0.34892813     0.66960
H998        H  0.58432729  0.06356847  0.31388601     0.15860
H999        H  0.63493790  0.98825002  0.26851799     0.15570
N1000       N  0.61271694  0.02342369  0.23233511     0.74660
O1001       O  0.61176147  0.05097973  0.36031630    -0.38790
O1002       O  0.59055470  0.01148833  0.36233921    -0.38730
O1003       O  0.59658399  0.03695871  0.21724429    -0.39440
O1004       O  0.62880180  0.00656530  0.22110671    -0.39500
C1005       C  0.70501778  0.31368776  0.06192813    -0.11780
C1006       C  0.68561747  0.33015509  0.07524717     0.05220
C1007       C  0.65929390  0.33332360  0.06368951    -0.07070
C1008       C  0.65213487  0.31735106  0.04083302    -0.07810
C1009       C  0.67024397  0.29794611  0.02968116    -0.02370
C1010       C  0.69791474  0.29753092  0.03896301     0.04450
N1011       N  0.71853335  0.28003103  0.02690690     0.66960
H1012       H  0.72527933  0.31186327  0.07094019     0.15860
H1013       H  0.63145282  0.31865297  0.03279248     0.15570
N1014       N  0.63906486  0.35097578  0.07598361     0.74660
O1015       O  0.74310126  0.28114467  0.03519062    -0.38790
O1016       O  0.71253194  0.26304788  0.00833310    -0.38730
O1017       O  0.64626104  0.37251936  0.08851970    -0.39440
O1018       O  0.61376955  0.34636331  0.07236932    -0.39500
C1019       C  0.61139881  0.26316687  0.03385099    -0.11780
C1020       C  0.63922680  0.25651135  0.02981307     0.05220
C1021       C  0.65031761  0.23405606  0.04446708    -0.07070
C1022       C  0.63356903  0.21882231  0.06197489    -0.07810
C1023       C  0.60760606  0.22840098  0.06971850    -0.02370
C1024       C  0.59587530  0.25010888  0.05454037     0.04450
N1025       N  0.56971805  0.26107016  0.06174601     0.66960
H1026       H  0.60253272  0.28030063  0.02279368     0.15860
H1027       H  0.64264450  0.20168323  0.07291370     0.15570
N1028       N  0.67911437  0.22844494  0.04511225     0.74660
O1029       O  0.56825436  0.28000470  0.07934736    -0.38790
O1030       O  0.54889293  0.25510613  0.04746812    -0.38730
O1031       O  0.69356992  0.24137563  0.06234058    -0.39440
O1032       O  0.68722535  0.20506446  0.03758168    -0.39500
C1033       C  0.91799304  0.24257080  0.32507135    -0.11780
C1034       C  0.92879155  0.26792547  0.33366688     0.05220
C1035       C  0.91738043  0.28042544  0.35725818    -0.07070
C1036       C  0.89378875  0.26890737  0.36959199    -0.07810
C1037       C  0.88177842  0.24482552  0.35925207    -0.02370
C1038       C  0.89505580  0.23052507  0.33781658     0.04450
N1039       N  0.88451059  0.20468993  0.32772462     0.66960
H1040       H  0.92652233  0.23272266  0.30719402     0.15860
H1041       H  0.88380860  0.27966959  0.38627202     0.15570
N1042       N  0.92851123  0.30553762  0.36793961     0.74660
O1043       O  0.88960478  0.19707399  0.30346448    -0.38790
O1044       O  0.87211123  0.18828875  0.34366457    -0.38730
O1045       O  0.91267792  0.32410129  0.37648589    -0.39440
O1046       O  0.95379367  0.30713433  0.37339090    -0.39500
C1047       C  0.91601610  0.32442050  0.29914046    -0.11780
C1048       C  0.92693485  0.29868414  0.29212375     0.05220
C1049       C  0.91705025  0.28544698  0.26815700    -0.07070
C1050       C  0.89688837  0.29819652  0.25225549    -0.07810
C1051       C  0.88440541  0.32274311  0.26055690    -0.02370
C1052       C  0.89503626  0.33655843  0.28367555     0.04450
N1053       N  0.88330243  0.36160681  0.29323608     0.66960
H1054       H  0.92199756  0.33420948  0.31810716     0.15860
H1055       H  0.88937508  0.28764512  0.23412153     0.15570
N1056       N  0.92482546  0.25803610  0.26094362     0.74660
O1057       O  0.86109487  0.36106446  0.30660216    -0.38790
O1058       O  0.89711281  0.38359848  0.29194965    -0.38730
O1059       O  0.90666499  0.24088670  0.25369864    -0.39440
O1060       O  0.94967962  0.25229032  0.25711843    -0.39500
C1061       C  0.99901984  0.28655437  0.26988457    -0.11780
C1062       C  0.98664913  0.30285007  0.29006916     0.05220
C1063       C  0.99244771  0.33155145  0.29041509    -0.07070
C1064       C  0.01323467  0.34178720  0.27299175    -0.07810
C1065       C  0.02712002  0.32464468  0.25448914    -0.02370
C1066       C  0.01749801  0.29750764  0.25076224     0.04450
N1067       N  0.02712830  0.28068944  0.22841813     0.66960
H1068       H  0.99533591  0.26472588  0.26976132     0.15860
H1069       H  0.02012411  0.36280692  0.27559800     0.15570
N1070       N  0.97921610  0.35042791  0.30897236     0.74660
O1071       O  0.02554052  0.25481940  0.22983858    -0.38790
O1072       O  0.03439462  0.29165208  0.20598818    -0.38730
O1073       O  0.96903300  0.34247507  0.33144685    -0.39440
O1074       O  0.97888941  0.37579355  0.30347154    -0.39500
C1075       C  0.01914726  0.23796779  0.35171773    -0.11780
C1076       C  0.03909028  0.25645211  0.36129993     0.05220
C1077       C  0.03453130  0.28487022  0.35919242    -0.07070
C1078       C  0.01094406  0.29405323  0.34567391    -0.07810
C1079       C  0.99181358  0.27581827  0.33368586    -0.02370
C1080       C  0.99584629  0.24720881  0.33746453     0.04450
N1081       N  0.97863025  0.22708694  0.32464150     0.66960
H1082       H  0.02299235  0.21608957  0.35307876     0.15860
H1083       H  0.00853435  0.31587896  0.34320034     0.15570
N1084       N  0.05423243  0.30461171  0.36937020     0.74660
O1085       O  0.96986550  0.20700186  0.33865607    -0.38790
O1086       O  0.97819608  0.22543147  0.29879004    -0.38730
O1087       O  0.05616769  0.32810783  0.35844756    -0.39440
O1088       O  0.06844391  0.29943701  0.39044928    -0.39500
C1089       C  0.30867891  0.93828800  0.29505715    -0.11780
C1090       C  0.28151546  0.94240111  0.28610271     0.05220
C1091       C  0.27043484  0.92404698  0.26633002    -0.07070
C1092       C  0.28568922  0.90118930  0.25812965    -0.07810
C1093       C  0.31154415  0.89561584  0.26941287    -0.02370
C1094       C  0.32378682  0.91523641  0.28682945     0.04450
N1095       N  0.35025469  0.91065023  0.29865369     0.66960
H1096       H  0.31744132  0.95144774  0.31059854     0.15860
H1097       H  0.27654868  0.88657050  0.24399889     0.15570
N1098       N  0.24307578  0.92708403  0.25578420     0.74660
O1099       O  0.37151704  0.91602502  0.28476934    -0.38790
O1100       O  0.35238820  0.90687663  0.32423619    -0.38730
O1101       O  0.23432254  0.95046989  0.24917464    -0.39440
O1102       O  0.22863114  0.90617667  0.25025445    -0.39500
C1103       C  0.21912307  0.93474384  0.31453735    -0.11780
C1104       C  0.24548744  0.94279384  0.32307400     0.05220
C1105       C  0.25701369  0.92991464  0.34654933    -0.07070
C1106       C  0.24251437  0.90842415  0.35958619    -0.07810
C1107       C  0.21673521  0.89978952  0.35000665    -0.02370
C1108       C  0.20423762  0.91404906  0.32808704     0.04450
N1109       N  0.17699219  0.90700078  0.31870126     0.66960
H1110       H  0.21052396  0.94339514  0.29613786     0.15860
H1111       H  0.25197819  0.89740828  0.37646232     0.15570
N1112       N  0.28394217  0.93718229  0.35638699     0.74660
O1113       O  0.16969011  0.91246973  0.29439402    -0.38790
O1114       O  0.15923794  0.89788255  0.33536386    -0.38730
O1115       O  0.29174001  0.96193853  0.35651903    -0.39440
O1116       O  0.29902993  0.91925725  0.36742474    -0.39500
C1117       C  0.26139307  0.01838807  0.34419651    -0.11780
C1118       C  0.24657419  0.00376828  0.32403529     0.05220
C1119       C  0.21791421  0.00856773  0.32170202    -0.07070
C1120       C  0.20601788  0.02958651  0.33722115    -0.07810
C1121       C  0.22180297  0.04644283  0.35437099    -0.02370
C1122       C  0.24971203  0.04008935  0.35903791     0.04450
N1123       N  0.26697099  0.05601369  0.37727283     0.66960
H1124       H  0.28299918  0.01433365  0.34696206     0.15860
H1125       H  0.18457989  0.03453380  0.33391529     0.15570
N1126       N  0.20051021  0.99380948  0.30300433     0.74660
O1127       O  0.28853464  0.04559891  0.38715143    -0.38790
O1128       O  0.26196891  0.08090806  0.38230206    -0.38730
O1129       O  0.20755775  0.99042524  0.27836062    -0.39440
O1130       O  0.17623430  0.98773056  0.30999037    -0.39500
C1131       C  0.30944034  0.00958313  0.29919568    -0.11780
C1132       C  0.28336260  0.00449324  0.28751592     0.05220
C1133       C  0.27447678  0.02222895  0.26624744    -0.07070
C1134       C  0.29010563  0.04533470  0.25908991    -0.07810
C1135       C  0.31437338  0.05204351  0.27302341    -0.02370
C1136       C  0.32489445  0.03312673  0.29221328     0.04450
N1137       N  0.34954041  0.03903728  0.30703976     0.66960
H1138       H  0.31653586  0.99708072  0.31612506     0.15860
H1139       H  0.28221258  0.05922466  0.24355817     0.15570
N1140       N  0.24879968  0.01836092  0.25266679     0.74660
O1141       O  0.34811753  0.04887467  0.33096711    -0.38790
O1142       O  0.37217709  0.03009748  0.29828910    -0.38730
O1143       O  0.23105618  0.03712789  0.25398919    -0.39440
O1144       O  0.24747468  0.00139171  0.23316858    -0.39500
C1145       C  0.27696364  0.25433374  0.04351404    -0.11780
C1146       C  0.29564534  0.27157618  0.02974299     0.05220
C1147       C  0.32422877  0.26720592  0.03373561    -0.07070
C1148       C  0.33261723  0.24902748  0.05476125    -0.07810
C1149       C  0.31338309  0.23360736  0.07001483    -0.02370
C1150       C  0.28566871  0.23368944  0.06136507     0.04450
N1151       N  0.26612826  0.21359030  0.07126964     0.66960
H1152       H  0.25516836  0.25739687  0.04096297     0.15860
H1153       H  0.35410621  0.24848607  0.06040537     0.15570
N1154       N  0.34501466  0.28170463  0.01828679     0.74660
O1155       O  0.24075042  0.21880589  0.07151931    -0.38790
O1156       O  0.27389896  0.18957544  0.07715102    -0.38730
O1157       O  0.34078191  0.30537643  0.00873204    -0.39440
O1158       O  0.36845497  0.27120248  0.01515059    -0.39500
C1159       C  0.27236680  0.34183902  0.07583957    -0.11780
C1160       C  0.24427254  0.33837596  0.08028042     0.05220
C1161       C  0.22803496  0.32498943  0.06003184    -0.07070
C1162       C  0.24118638  0.31419352  0.03652556    -0.07810
C1163       C  0.26986418  0.31581292  0.03311749    -0.02370
C1164       C  0.28532665  0.33046464  0.05301116     0.04450
N1165       N  0.31460105  0.33201063  0.05200983     0.66960
H1166       H  0.28482780  0.35189180  0.09137510     0.15860
H1167       H  0.22929668  0.30224939  0.02202818     0.15570
N1168       N  0.19887259  0.32061089  0.06359180     0.74660
O1169       O  0.32568264  0.35308372  0.04158609    -0.38790
O1170       O  0.32824000  0.31798580  0.06900868    -0.38730
O1171       O  0.18505431  0.33547522  0.07960962    -0.39440
O1172       O  0.18637240  0.30282621  0.04936402    -0.39500
C1173       C  0.01602561  0.30572643  0.75071979    -0.11780
C1174       C  0.03061732  0.32702108  0.73782080     0.05220
C1175       C  0.02291309  0.33537866  0.71117421    -0.07070
C1176       C  0.00208369  0.32093187  0.69751125    -0.07810
C1177       C  0.98938395  0.29769704  0.70915686    -0.02370
C1178       C  0.99606026  0.29016639  0.73674880     0.04450
N1179       N  0.98464652  0.26641977  0.75073252     0.66960
H1180       H  0.02245215  0.29940012  0.77109949     0.15860
H1181       H  0.99712576  0.32682836  0.67669065     0.15570
N1182       N  0.03769846  0.35646304  0.69658813     0.74660
O1183       O  0.98723845  0.26392491  0.77645684    -0.38790
O1184       O  0.97276448  0.24735694  0.73786202    -0.38730
O1185       O  0.04382570  0.35305604  0.67160962    -0.39440
O1186       O  0.04046022  0.38002828  0.70698352    -0.39500
C1187       C  0.02077607  0.25917263  0.63071107    -0.11780
C1188       C  0.03998043  0.24350580  0.64516636     0.05220
C1189       C  0.03314566  0.23388378  0.67174659    -0.07070
C1190       C  0.00949644  0.24382584  0.68460968    -0.07810
C1191       C  0.99167385  0.26241214  0.67156830    -0.02370
C1192       C  0.99675356  0.26861063  0.64345833     0.04450
N1193       N  0.97925628  0.28603926  0.62776644     0.66960
H1194       H  0.02545884  0.26607536  0.61002724     0.15860
H1195       H  0.00608531  0.23785238  0.70557064     0.15570
N1196       N  0.05041933  0.21479839  0.68628701     0.74660
O1197       O  0.98157615  0.31168533  0.63041552    -0.38790
O1198       O  0.96891704  0.27671864  0.60585867    -0.38730
O1199       O  0.05213299  0.21562039  0.71218100    -0.39440
O1200       O  0.06232879  0.19570417  0.67353197    -0.39500
C1201       C  0.23607104  0.30736226  0.96300346    -0.11780
C1202       C  0.26297332  0.31490805  0.97046862     0.05220
C1203       C  0.27588104  0.33658112  0.95569473    -0.07070
C1204       C  0.26286932  0.34782981  0.93241338    -0.07810
C1205       C  0.23725251  0.33812663  0.92351660    -0.02370
C1206       C  0.22301711  0.31856326  0.93976150     0.04450
N1207       N  0.19596890  0.30894253  0.93225406     0.66960
H1208       H  0.22559705  0.29140804  0.97435268     0.15860
H1209       H  0.27349912  0.36319423  0.92018298     0.15570
N1210       N  0.30260002  0.34658517  0.96328604     0.74660
O1211       O  0.18758827  0.28559626  0.94008050    -0.38790
O1212       O  0.17953855  0.32447902  0.91962229    -0.38730
O1213       O  0.31864247  0.35639304  0.94532538    -0.39440
O1214       O  0.30886960  0.34891033  0.98829517    -0.39500
C1215       C  0.29157932  0.22970254  0.94376630    -0.11780
C1216       C  0.31557406  0.23719532  0.92959962     0.05220
C1217       C  0.32890998  0.26196842  0.93654147    -0.07070
C1218       C  0.31734881  0.27910145  0.95642074    -0.07810
C1219       C  0.29247703  0.27248896  0.96960009    -0.02370
C1220       C  0.27904993  0.24734113  0.96277929     0.04450
N1221       N  0.25186513  0.24024653  0.97240508     0.66960
H1222       H  0.28121468  0.21079355  0.93804466     0.15860
H1223       H  0.32717837  0.29866520  0.96024489     0.15570
N1224       N  0.35248430  0.27151181  0.92165450     0.74660
O1225       O  0.23696169  0.22386924  0.95879734    -0.38790
O1226       O  0.24267195  0.24944124  0.99469856    -0.38730
O1227       O  0.35124846  0.29385936  0.90850728    -0.39440
O1228       O  0.37567472  0.26118782  0.92660730    -0.39500
C1229       C  0.31141891  0.00873683  0.70146394    -0.11780
C1230       C  0.28389881  0.00512643  0.70984162     0.05220
C1231       C  0.27282913  0.02443094  0.72844879    -0.07070
C1232       C  0.28831744  0.04713210  0.73662658    -0.07810
C1233       C  0.31416447  0.05279478  0.72529393    -0.02370
C1234       C  0.32647239  0.03272719  0.70826436     0.04450
N1235       N  0.35282675  0.03726302  0.69564755     0.66960
H1236       H  0.31993526  0.99482040  0.68645889     0.15860
H1237       H  0.27891809  0.06182980  0.75039876     0.15570
N1238       N  0.24478378  0.02344382  0.73693374     0.74660
O1239       O  0.36842326  0.01717422  0.69099682    -0.38790
O1240       O  0.35903452  0.06049871  0.68578777    -0.38730
O1241       O  0.23920139  0.01376052  0.76037066    -0.39440
O1242       O  0.22820614  0.04016088  0.72615808    -0.39500
C1243       C  0.26373468  0.02159934  0.65463870    -0.11780
C1244       C  0.24863951  0.00411157  0.67218039     0.05220
C1245       C  0.21956854  0.00640057  0.67254133    -0.07070
C1246       C  0.20708858  0.02749441  0.65742436    -0.07810
C1247       C  0.22276369  0.04681558  0.64286106    -0.02370
C1248       C  0.25138463  0.04330693  0.64046258     0.04450
N1249       N  0.26843250  0.06271206  0.62575413     0.66960
H1250       H  0.28580544  0.01945358  0.65336906     0.15860
H1251       H  0.18514319  0.03058519  0.65940818     0.15570
N1252       N  0.20231706  0.98948999  0.68954034     0.74660
O1253       O  0.29321401  0.06626903  0.63263583    -0.38790
O1254       O  0.25954780  0.07486864  0.60463499    -0.38730
O1255       O  0.20687644  0.98753264  0.71496704    -0.39440
O1256       O  0.17965065  0.98084310  0.68024177    -0.39500
C1257       C  0.24049337  0.90998788  0.63616693    -0.11780
C1258       C  0.21668704  0.89996747  0.64918247     0.05220
C1259       C  0.20731069  0.91301353  0.67328216    -0.07070
C1260       C  0.22387503  0.93295275  0.68570935    -0.07810
C1261       C  0.24801094  0.94279919  0.67337644    -0.02370
C1262       C  0.25611268  0.93163032  0.64772153     0.04450
N1263       N  0.28070954  0.94081252  0.63398084     0.66960
H1264       H  0.24759037  0.90006203  0.61759269     0.15860
H1265       H  0.21812180  0.94025197  0.70575191     0.15570
N1266       N  0.18144625  0.90559177  0.68577771     0.74660
O1267       O  0.29360653  0.92478418  0.61829043    -0.38790
O1268       O  0.28840762  0.96555379  0.63556698    -0.38730
O1269       O  0.16128388  0.89856245  0.67099276    -0.39440
O1270       O  0.17772413  0.90891737  0.71124231    -0.39500
C1271       C  0.29225694  0.90382061  0.73736423    -0.11780
C1272       C  0.31506877  0.89476598  0.72240748     0.05220
C1273       C  0.32589340  0.91163805  0.70126900    -0.07070
C1274       C  0.31175749  0.93578604  0.69404516    -0.07810
C1275       C  0.28703891  0.94315930  0.70699981    -0.02370
C1276       C  0.27812786  0.92772685  0.73004626     0.04450
N1277       N  0.25396152  0.93509429  0.74523372     0.66960
H1278       H  0.28463428  0.89132328  0.75422798     0.15860
H1279       H  0.31861584  0.94729944  0.67626681     0.15570
N1280       N  0.34973484  0.90388212  0.68562953     0.74660
O1281       O  0.23994243  0.91694853  0.75755277    -0.38790
O1282       O  0.24782128  0.95998904  0.74837384    -0.38730
O1283       O  0.35461081  0.87897930  0.68049078    -0.39440
O1284       O  0.36473291  0.92216123  0.67475245    -0.39500
C1285       C  0.23105136  0.61045162  0.94087698    -0.11780
C1286       C  0.24930091  0.60520345  0.91929234     0.05220
C1287       C  0.27754698  0.61056738  0.92292219    -0.07070
C1288       C  0.28631258  0.62342666  0.94718330    -0.07810
C1289       C  0.26762217  0.63226302  0.96741624    -0.02370
C1290       C  0.23978114  0.62400959  0.96478111     0.04450
N1291       N  0.21969402  0.62967151  0.98530870     0.66960
H1292       H  0.20936899  0.60596264  0.93825372     0.15860
H1293       H  0.30791904  0.62813993  0.94950867     0.15570
N1294       N  0.29726507  0.60447573  0.90171182     0.74660
O1295       O  0.20384942  0.64977953  0.98184539    -0.38790
O1296       O  0.21166918  0.61006222  0.00038241    -0.38730
O1297       O  0.31960591  0.61772768  0.90030190    -0.39440
O1298       O  0.29324644  0.58480917  0.88529004    -0.39500
C1299       C  0.28183063  0.71527887  0.93776773    -0.11780
C1300       C  0.30902798  0.71301151  0.92834370     0.05220
C1301       C  0.32713704  0.69541508  0.94281007    -0.07070
C1302       C  0.31712414  0.67991198  0.96508827    -0.07810
C1303       C  0.28897870  0.67920484  0.97137012    -0.02370
C1304       C  0.27122339  0.69764964  0.95786703     0.04450
N1305       N  0.24209168  0.69736997  0.96258639     0.66960
H1306       H  0.26797879  0.72965927  0.92801711     0.15860
H1307       H  0.33070345  0.66541280  0.97493908     0.15570
N1308       N  0.35457061  0.69031868  0.93346288     0.74660
O1309       O  0.22571376  0.70082147  0.94276007    -0.38790
O1310       O  0.23270575  0.69704797  0.98672361    -0.38730
O1311       O  0.37397251  0.68907945  0.95063404    -0.39440
O1312       O  0.35856306  0.68201049  0.90923070    -0.39500
C1313       C  0.89437533  0.22830632  0.66662251    -0.11780
C1314       C  0.88280624  0.24027956  0.64312847     0.05220
C1315       C  0.89601081  0.26302437  0.63070944    -0.07070
C1316       C  0.91899517  0.27469722  0.64372244    -0.07810
C1317       C  0.92921978  0.26420646  0.66860164    -0.02370
C1318       C  0.91738057  0.23994491  0.67934472     0.04450
N1319       N  0.92712332  0.22796022  0.70429078     0.66960
H1320       H  0.88444588  0.21067286  0.67610750     0.15860
H1321       H  0.92733894  0.29354976  0.63546459     0.15570
N1322       N  0.88534435  0.27591609  0.60632960     0.74660
O1323       O  0.91196472  0.22818437  0.72534386    -0.38790
O1324       O  0.94674493  0.21118951  0.70317289    -0.38730
O1325       O  0.85988695  0.27982061  0.60353255    -0.39440
O1326       O  0.90165419  0.28627936  0.58893447    -0.39500
C1327       C  0.89258358  0.33501002  0.70892691    -0.11780
C1328       C  0.88683588  0.32576659  0.73558424     0.05220
C1329       C  0.90423197  0.30630776  0.74803163    -0.07070
C1330       C  0.92434392  0.29366265  0.73195002    -0.07810
C1331       C  0.92929614  0.30136613  0.70459270    -0.02370
C1332       C  0.91411518  0.32360046  0.69356429     0.04450
N1333       N  0.92007699  0.33466849  0.66689391     0.66960
H1334       H  0.87957866  0.35051056  0.69967337     0.15860
H1335       H  0.93509715  0.27646202  0.74067242     0.15570
N1336       N  0.90100016  0.29859140  0.77652525     0.74660
O1337       O  0.90088148  0.34300910  0.65159550    -0.38790
O1338       O  0.94458762  0.34002115  0.66035756    -0.38730
O1339       O  0.89112690  0.31534382  0.79360472    -0.39440
O1340       O  0.91101566  0.27639656  0.78539841    -0.39500
C1341       C  0.61621720  0.21981697  0.94765596    -0.11780
C1342       C  0.60295918  0.23593221  0.92790503     0.05220
C1343       C  0.60295674  0.26476195  0.93050248    -0.07070
C1344       C  0.61842040  0.27672018  0.95164418    -0.07810
C1345       C  0.63498350  0.26082987  0.96919147    -0.02370
C1346       C  0.63276002  0.23181651  0.96795249     0.04450
N1347       N  0.64925595  0.21410236  0.98461232     0.66960
H1348       H  0.61638892  0.19767917  0.94522268     0.15860
H1349       H  0.61888285  0.29887793  0.95332946     0.15570
N1350       N  0.58918703  0.28213950  0.91085387     0.74660
O1351       O  0.63901795  0.19216739  0.99415002    -0.38790
O1352       O  0.67493888  0.21738270  0.98525173    -0.38730
O1353       O  0.56824610  0.27364498  0.89806719    -0.39440
O1354       O  0.59688043  0.30674065  0.90744006    -0.39500
C1355       C  0.66737054  0.32278818  0.96655667    -0.11780
C1356       C  0.67418660  0.29479050  0.96870155     0.05220
C1357       C  0.69339936  0.28386687  0.94995418    -0.07070
C1358       C  0.70432668  0.30045378  0.92929965    -0.07810
C1359       C  0.69412993  0.32687171  0.92437564    -0.02370
C1360       C  0.67672766  0.33879619  0.94421381     0.04450
N1361       N  0.66628509  0.36595102  0.94065586     0.66960
H1362       H  0.65240578  0.33140685  0.98052218     0.15860
H1363       H  0.71809774  0.29115276  0.91451680     0.15570
N1364       N  0.69895647  0.25510547  0.94861239     0.74660
O1365       O  0.64078258  0.36942892  0.93776836    -0.38790
O1366       O  0.68136147  0.38628541  0.94650672    -0.38730
O1367       O  0.68441445  0.24045133  0.93286172    -0.39440
O1368       O  0.72260546  0.24676136  0.95500312    -0.39500
C1369       C  0.98709056  0.62414828  0.71852477    -0.11780
C1370       C  0.99007040  0.65140355  0.70896213     0.05220
C1371       C  0.01418124  0.66588670  0.71600236    -0.07070
C1372       C  0.03570703  0.65229004  0.72838579    -0.07810
C1373       C  0.03249549  0.62606049  0.74017448    -0.02370
C1374       C  0.00720103  0.61201133  0.73567720     0.04450
N1375       N  0.00117848  0.58614733  0.74865800     0.66960
H1376       H  0.96917397  0.61223578  0.71298831     0.15860
H1377       H  0.05499142  0.66334122  0.72941785     0.15570
N1378       N  0.01685845  0.69491935  0.71180633     0.74660
O1379       O  0.00605897  0.58288253  0.77394133    -0.38790
O1380       O  0.98714986  0.56820717  0.73615584    -0.38730
O1381       O  0.00186047  0.71066935  0.72571462    -0.39440
O1382       O  0.03856928  0.70459223  0.70129012    -0.39500
C1383       C  0.00372345  0.65304020  0.65002933    -0.11780
C1384       C  0.98688389  0.67320176  0.66201903     0.05220
C1385       C  0.99220333  0.70109652  0.65494354    -0.07070
C1386       C  0.01636700  0.70800626  0.64064726    -0.07810
C1387       C  0.03532296  0.68790153  0.63303994    -0.02370
C1388       C  0.02809517  0.65993831  0.63599011     0.04450
N1389       N  0.04593139  0.63847764  0.62634511     0.66960
H1390       H  0.99930070  0.63159968  0.65428448     0.15860
H1391       H  0.02148881  0.72950822  0.63757999     0.15570
N1392       N  0.97463703  0.72300632  0.66303175     0.74660
O1393       O  0.04380337  0.61440933  0.63588843    -0.38790
O1394       O  0.06232655  0.64284342  0.60667980    -0.38730
O1395       O  0.98360492  0.74040951  0.68004823    -0.39440
O1396       O  0.95647639  0.73059198  0.64618533    -0.39500
C1397       C  0.66146985  0.00735449  0.63871404    -0.11780
C1398       C  0.66427173  0.99969072  0.66636246     0.05220
C1399       C  0.68664201  0.01027811  0.68150323    -0.07070
C1400       C  0.70329622  0.03063441  0.67006698    -0.07810
C1401       C  0.69700616  0.04239248  0.64451658    -0.02370
C1402       C  0.67673757  0.02952330  0.62789302     0.04450
N1403       N  0.66923876  0.04020326  0.60145193     0.66960
H1404       H  0.64523813  0.99828635  0.62648396     0.15860
H1405       H  0.71971123  0.03919019  0.68251583     0.15570
N1406       N  0.69155763  0.00242484  0.70937247     0.74660
O1407       O  0.66480258  0.02389065  0.58178895    -0.38790
O1408       O  0.66208747  0.06497384  0.59905607    -0.38730
O1409       O  0.71234337  0.98796497  0.71462998    -0.39440
O1410       O  0.68157823  0.01694850  0.72830799    -0.39500
C1411       C  0.62139177  0.00653680  0.72381590    -0.11780
C1412       C  0.62122065  0.00445885  0.69502177     0.05220
C1413       C  0.60569906  0.02374463  0.67973774    -0.07070
C1414       C  0.59296776  0.04555207  0.69314426    -0.07810
C1415       C  0.59526086  0.04891855  0.72149160    -0.02370
C1416       C  0.60887252  0.02871811  0.73741469     0.04450
N1417       N  0.61152971  0.03109216  0.76688771     0.66960
H1418       H  0.63296263  0.99185234  0.73566807     0.15860
H1419       H  0.58245856  0.06102325  0.68107153     0.15570
N1420       N  0.60315750  0.02210726  0.65047440     0.74660
O1421       O  0.62882810  0.01671876  0.77975100    -0.38790
O1422       O  0.59545691  0.04604625  0.78052171    -0.38730
O1423       O  0.59307403  0.00079152  0.63974425    -0.39440
O1424       O  0.60580489  0.04351832  0.63597537    -0.39500
C1425       C  0.60545203  0.67736363  0.03222708    -0.11780
C1426       C  0.63368309  0.68367987  0.02990676     0.05220
C1427       C  0.64539652  0.70186004  0.04927126    -0.07070
C1428       C  0.62948117  0.71182547  0.07088136    -0.07810
C1429       C  0.60236639  0.70291699  0.07511057    -0.02370
C1430       C  0.58974628  0.68616131  0.05494484     0.04450
N1431       N  0.56219406  0.67578636  0.05823035     0.66960
H1432       H  0.59642710  0.66251837  0.01841924     0.15860
H1433       H  0.63911502  0.72530164  0.08581060     0.15570
N1434       N  0.67402729  0.70869191  0.04880735     0.74660
O1435       O  0.54763905  0.67083940  0.03731451    -0.38790
O1436       O  0.55355143  0.66824290  0.08154134    -0.38730
O1437       O  0.68386579  0.72131657  0.02840538    -0.39440
O1438       O  0.68782016  0.70770138  0.07077036    -0.39500
C1439       C  0.64610491  0.62581649  0.04631232    -0.11780
C1440       C  0.66437046  0.64180648  0.03021365     0.05220
C1441       C  0.69296440  0.63747534  0.03423080    -0.07070
C1442       C  0.70200786  0.61957787  0.05484843    -0.07810
C1443       C  0.68373460  0.60734861  0.07331572    -0.02370
C1444       C  0.65524568  0.60949387  0.06844985     0.04450
N1445       N  0.63544862  0.59694581  0.08670441     0.66960
H1446       H  0.62425461  0.62749849  0.04285737     0.15860
H1447       H  0.72388262  0.61834618  0.05891243     0.15570
N1448       N  0.71367118  0.65329619  0.02080230     0.74660
O1449       O  0.61101804  0.60549703  0.08742426    -0.38790
O1450       O  0.64180841  0.57639910  0.10120148    -0.38730
O1451       O  0.72138461  0.67528767  0.03217678    -0.39440
O1452       O  0.73083982  0.64065487  0.00614711    -0.39500
C1453       C  0.62758305  0.91311502  0.74553596    -0.11780
C1454       C  0.60158536  0.90226591  0.73925767     0.05220
C1455       C  0.58558991  0.91574478  0.71906864    -0.07070
C1456       C  0.59742234  0.93687103  0.70316285    -0.07810
C1457       C  0.62516866  0.94406102  0.70648069    -0.02370
C1458       C  0.63981748  0.93302035  0.72891534     0.04450
N1459       N  0.66788492  0.94013985  0.73399852     0.66960
H1460       H  0.63965968  0.90419383  0.76198655     0.15860
H1461       H  0.58559052  0.94594544  0.68668321     0.15570
N1462       N  0.55834863  0.90681718  0.71271467     0.74660
O1463       O  0.68604017  0.92197449  0.73106862    -0.38790
O1464       O  0.67305597  0.96046077  0.74920111    -0.38730
O1465       O  0.53819389  0.91976839  0.72242952    -0.39440
O1466       O  0.55449751  0.88998779  0.69339310    -0.39500
C1467       C  0.65475439  0.89935918  0.63504835    -0.11780
C1468       C  0.68242658  0.89434776  0.64033151     0.05220
C1469       C  0.69768304  0.91288217  0.65689678    -0.07070
C1470       C  0.68399701  0.93537904  0.66877127    -0.07810
C1471       C  0.65569432  0.93925104  0.66504675    -0.02370
C1472       C  0.64117617  0.92136943  0.64724887     0.04450
N1473       N  0.61237658  0.92455032  0.64213657     0.66960
H1474       H  0.64321947  0.88507987  0.62237455     0.15860
H1475       H  0.69509092  0.94901745  0.68233912     0.15570
N1476       N  0.72637615  0.90856428  0.66293322     0.74660
O1477       O  0.59695681  0.90369503  0.64016522    -0.38790
O1478       O  0.60303729  0.94776822  0.63572480    -0.38730
O1479       O  0.74116002  0.89416314  0.64735007    -0.39440
O1480       O  0.73756786  0.92059637  0.68303783    -0.39500
C1481       C  0.89562179  0.72174353  0.66913338    -0.11780
C1482       C  0.88391896  0.71040555  0.64543168     0.05220
C1483       C  0.89526652  0.68627882  0.63417420    -0.07070
C1484       C  0.91715285  0.67346232  0.64778562    -0.07810
C1485       C  0.92682722  0.68335871  0.67311160    -0.02370
C1486       C  0.91575695  0.70789402  0.68397520     0.04450
N1487       N  0.92360125  0.71853548  0.71041084     0.66960
H1488       H  0.88702887  0.74040396  0.67759920     0.15860
H1489       H  0.92520898  0.65445503  0.63963389     0.15570
N1490       N  0.88301737  0.67283283  0.61100734     0.74660
O1491       O  0.90665769  0.73202086  0.72458229    -0.38790
O1492       O  0.94808665  0.71702663  0.71853245    -0.38730
O1493       O  0.88415122  0.68397907  0.58759547    -0.39440
O1494       O  0.87629139  0.64780310  0.61279275    -0.39500
C1495       C  0.88980518  0.63698057  0.73890451    -0.11780
C1496       C  0.87813981  0.61647565  0.72219234     0.05220
C1497       C  0.89267542  0.60780409  0.69861378    -0.07070
C1498       C  0.91706259  0.62164667  0.69119095    -0.07810
C1499       C  0.92706771  0.64427037  0.70623475    -0.02370
C1500       C  0.91434438  0.65060214  0.73154525     0.04450
N1501       N  0.92603778  0.67048962  0.74998843     0.66960
H1502       H  0.87933866  0.64272282  0.75767387     0.15860
H1503       H  0.92687686  0.61646329  0.67191697     0.15570
N1504       N  0.88212248  0.58668703  0.68076994     0.74660
O1505       O  0.91086455  0.68344414  0.76647683    -0.38790
O1506       O  0.95175663  0.67199568  0.75290630    -0.38730
O1507       O  0.85678931  0.58520940  0.67539461    -0.39440
O1508       O  0.89850614  0.57150438  0.66773143    -0.39500
C1509       C  0.70899330  0.63656873  0.93916387    -0.11780
C1510       C  0.69447981  0.61454327  0.92764662     0.05220
C1511       C  0.66847977  0.60725875  0.93847075    -0.07070
C1512       C  0.65765891  0.62302673  0.96009156    -0.07810
C1513       C  0.67069706  0.64723669  0.96920639    -0.02370
C1514       C  0.69694223  0.65426844  0.95829293     0.04450
N1515       N  0.71133095  0.67948285  0.96491686     0.66960
H1516       H  0.72880930  0.64190213  0.93042762     0.15860
H1517       H  0.63766499  0.61769152  0.96833597     0.15570
N1518       N  0.65178126  0.58587003  0.92642468     0.74660
O1519       O  0.73294343  0.68619938  0.95212777    -0.38790
O1520       O  0.70358193  0.69463719  0.98428253    -0.38730
O1521       O  0.66259824  0.56576422  0.91431573    -0.39440
O1522       O  0.62597176  0.58631508  0.92900168    -0.39500
C1523       C  0.62510393  0.71184084  0.92822634    -0.11780
C1524       C  0.60131361  0.69723909  0.92113458     0.05220
C1525       C  0.59172546  0.67634668  0.93907036    -0.07070
C1526       C  0.60788463  0.66905596  0.96206362    -0.07810
C1527       C  0.63304076  0.68231331  0.96805629    -0.02370
C1528       C  0.64075468  0.70495401  0.95134891     0.04450
N1529       N  0.66420603  0.72158035  0.95739714     0.66960
H1530       H  0.63198253  0.72860168  0.91515049     0.15860
H1531       H  0.60195330  0.65110659  0.97384542     0.15570
N1532       N  0.56679221  0.66122610  0.93368621     0.74660
O1533       O  0.68105819  0.72739297  0.93848304    -0.38790
O1534       O  0.66399964  0.73612159  0.97880318    -0.38730
O1535       O  0.55929424  0.65606122  0.90939361    -0.39440
O1536       O  0.55310043  0.65124484  0.95341068    -0.39500
C1537       C  0.50519035  0.79101118  0.78388630    -0.11780
C1538       C  0.48839804  0.80639518  0.80134353     0.05220
C1539       C  0.49334764  0.83508344  0.80410036    -0.07070
C1540       C  0.51722144  0.84636440  0.79197303    -0.07810
C1541       C  0.53503584  0.83018307  0.77620810    -0.02370
C1542       C  0.52717828  0.80291615  0.76981603     0.04450
N1543       N  0.54149389  0.78705742  0.74941344     0.66960
H1544       H  0.50089739  0.76930378  0.78112957     0.15860
H1545       H  0.52280332  0.86748095  0.79629075     0.15570
N1546       N  0.47566607  0.85288206  0.81974858     0.74660
O1547       O  0.54232868  0.76118861  0.75121002    -0.38790
O1548       O  0.55078380  0.79857239  0.72802720    -0.38730
O1549       O  0.45889622  0.84343104  0.83712747    -0.39440
O1550       O  0.47677256  0.87857245  0.81617470    -0.39500
C1551       C  0.48508833  0.74305486  0.83485503    -0.11780
C1552       C  0.48525482  0.77157762  0.83932080     0.05220
C1553       C  0.50535747  0.78250976  0.85733663    -0.07070
C1554       C  0.52635391  0.76565471  0.86748454    -0.07810
C1555       C  0.52752785  0.73778713  0.86059130    -0.02370
C1556       C  0.50584502  0.72593097  0.84528822     0.04450
N1557       N  0.50535409  0.69697194  0.83905847     0.66960
H1558       H  0.46985478  0.73422206  0.82160434     0.15860
H1559       H  0.54272581  0.77471609  0.87961569     0.15570
N1560       N  0.50513849  0.81085319  0.86498529     0.74660
O1561       O  0.49150730  0.68805053  0.81898641    -0.38790
O1562       O  0.51679014  0.67990481  0.85487509    -0.38730
O1563       O  0.48549673  0.81973236  0.87928042    -0.39440
O1564       O  0.52683019  0.82506281  0.86298257    -0.39500
C1565       C  0.41929490  0.78092409  0.85896944    -0.11780
C1566       C  0.42474863  0.77027431  0.83265230     0.05220
C1567       C  0.40760925  0.74933795  0.82200230    -0.07070
C1568       C  0.38433193  0.74146987  0.83685300    -0.07810
C1569       C  0.37663775  0.75500211  0.86107689    -0.02370
C1570       C  0.39485613  0.77427348  0.87301474     0.04450
N1571       N  0.38801219  0.78903979  0.89766386     0.66960
H1572       H  0.43228608  0.79722565  0.86689097     0.15860
H1573       H  0.37085585  0.72582471  0.82837643     0.15570
N1574       N  0.41224653  0.73722922  0.79543507     0.74660
O1575       O  0.40686898  0.79777791  0.91323627    -0.38790
O1576       O  0.36361470  0.79637764  0.90223888    -0.38730
O1577       O  0.43628545  0.73243192  0.78719825    -0.39440
O1578       O  0.39223396  0.72851836  0.78134403    -0.39500
C1579       C  0.40866986  0.82400437  0.80679928    -0.11780
C1580       C  0.42666189  0.80501855  0.79457490     0.05220
C1581       C  0.42299143  0.79914240  0.76621029    -0.07070
C1582       C  0.40118168  0.81122975  0.75171386    -0.07810
C1583       C  0.38252891  0.82882998  0.76455468    -0.02370
C1584       C  0.38670045  0.83584751  0.79240408     0.04450
N1585       N  0.36756922  0.85273727  0.80717226     0.66960
H1586       H  0.41041497  0.82817496  0.82855951     0.15860
H1587       H  0.39781779  0.80558453  0.73042283     0.15570
N1588       N  0.43966384  0.77974024  0.75191054     0.74660
O1589       O  0.36218702  0.84758682  0.83206087    -0.38790
O1590       O  0.35873571  0.87470774  0.79670147    -0.38730
O1591       O  0.46362684  0.78678862  0.74504200    -0.39440
O1592       O  0.42802355  0.76085139  0.73839941    -0.39500
C1593       C  0.77762665  0.52307609  0.84355118    -0.11780
C1594       C  0.76005270  0.50454845  0.82959695     0.05220
C1595       C  0.73131485  0.50876394  0.83249742    -0.07070
C1596       C  0.72147944  0.53072338  0.84827322    -0.07810
C1597       C  0.73925529  0.54995244  0.86010155    -0.02370
C1598       C  0.76780473  0.54580779  0.85833564     0.04450
N1599       N  0.78708025  0.56517769  0.86997803     0.66960
H1600       H  0.79949887  0.52111340  0.84161105     0.15860
H1601       H  0.69954800  0.53449704  0.84874743     0.15570
N1602       N  0.71154639  0.49449232  0.81633047     0.74660
O1603       O  0.81125355  0.56694031  0.86069362    -0.38790
O1604       O  0.78066463  0.57946693  0.89060058    -0.38730
O1605       O  0.69446574  0.47917191  0.82858890    -0.39440
O1606       O  0.70441877  0.50539564  0.79388120    -0.39500
C1607       C  0.77341030  0.51169687  0.76557998    -0.11780
C1608       C  0.78909913  0.50045011  0.78685721     0.05220
C1609       C  0.81749811  0.50728184  0.78863848    -0.07070
C1610       C  0.82779533  0.52857240  0.77176260    -0.07810
C1611       C  0.81095435  0.54177284  0.75243707    -0.02370
C1612       C  0.78455787  0.53069479  0.74707655     0.04450
N1613       N  0.76844196  0.53974750  0.72391794     0.66960
H1614       H  0.75201446  0.50579955  0.76364804     0.15860
H1615       H  0.84836629  0.53633135  0.77538589     0.15570
N1616       N  0.83601555  0.49403392  0.80758014     0.74660
O1617       O  0.78012513  0.54806470  0.70223532    -0.38790
O1618       O  0.74260627  0.53725305  0.72409942    -0.38730
O1619       O  0.86139477  0.49328038  0.80229963    -0.39440
O1620       O  0.82765978  0.48379587  0.82990566    -0.39500
C1621       C  0.81076315  0.42841996  0.80735936    -0.11780
C1622       C  0.78920523  0.43952568  0.79155489     0.05220
C1623       C  0.78371580  0.42745092  0.76555684    -0.07070
C1624       C  0.79791261  0.40379412  0.75760101    -0.07810
C1625       C  0.81788666  0.39191147  0.77442283    -0.02370
C1626       C  0.82538918  0.40503194  0.79915576     0.04450
N1627       N  0.84648023  0.39435706  0.81699495     0.66960
H1628       H  0.81464206  0.43631937  0.82769065     0.15860
H1629       H  0.79261258  0.39390938  0.73834479     0.15570
N1630       N  0.76362299  0.43810956  0.74699696     0.74660
O1631       O  0.85947886  0.41037003  0.83278290    -0.38790
O1632       O  0.85124309  0.36893090  0.81836743    -0.38730
O1633       O  0.76702562  0.46176212  0.73695789    -0.39440
O1634       O  0.74717960  0.42178855  0.73520427    -0.39500
C1635       C  0.76018855  0.43372653  0.85059492    -0.11780
C1636       C  0.75007576  0.44232233  0.82488151     0.05220
C1637       C  0.72579775  0.42976747  0.81444465    -0.07070
C1638       C  0.71279143  0.40932722  0.83011286    -0.07810
C1639       C  0.72503659  0.39812635  0.85364056    -0.02370
C1640       C  0.74879227  0.41094973  0.86439038     0.04450
N1641       N  0.76372606  0.39911133  0.88678484     0.66960
H1642       H  0.77890420  0.44283228  0.85856931     0.15860
H1643       H  0.69412940  0.39991078  0.82233661     0.15570
N1644       N  0.71468689  0.43601516  0.78760477     0.74660
O1645       O  0.78797639  0.39096723  0.88284795    -0.38790
O1646       O  0.75548208  0.40267400  0.91109050    -0.38730
O1647       O  0.72098163  0.45786436  0.77515227    -0.39440
O1648       O  0.69740595  0.42004546  0.77654016    -0.39500
C1649       C  0.80630559  0.51105138  0.20269393    -0.11780
C1650       C  0.78353962  0.49808847  0.21503331     0.05220
C1651       C  0.77685845  0.50489867  0.24241952    -0.07070
C1652       C  0.79034638  0.52691005  0.25517085    -0.07810
C1653       C  0.81067893  0.54212992  0.24143898    -0.02370
C1654       C  0.81989751  0.53317531  0.21540363     0.04450
N1655       N  0.84125760  0.54737129  0.20055089     0.66960
H1656       H  0.81193266  0.50560022  0.18187791     0.15860
H1657       H  0.78385656  0.53321875  0.27551125     0.15570
N1658       N  0.75640777  0.49008445  0.25757943     0.74660
O1659       O  0.85745604  0.53399693  0.18544625    -0.38790
O1660       O  0.84189767  0.57328106  0.19957580    -0.38730
O1661       O  0.76098575  0.46539717  0.26385515    -0.39440
O1662       O  0.73871869  0.50316248  0.27119973    -0.39500
C1663       C  0.75975087  0.50873710  0.15213072    -0.11780
C1664       C  0.74788300  0.50162430  0.17754121     0.05220
C1665       C  0.72436813  0.51607984  0.18646325    -0.07070
C1666       C  0.71381748  0.53719563  0.16994864    -0.07810
C1667       C  0.72681696  0.54564967  0.14557942    -0.02370
C1668       C  0.75016074  0.53103953  0.13631630     0.04450
N1669       N  0.76589957  0.53975286  0.11269044     0.66960
H1670       H  0.77799919  0.49805444  0.14553723     0.15860
H1671       H  0.69612685  0.54853988  0.17713419     0.15570
N1672       N  0.71178091  0.51093572  0.21274818     0.74660
O1673       O  0.79118952  0.53432404  0.11119878    -0.38790
O1674       O  0.75452595  0.55116404  0.09240378    -0.38730
O1675       O  0.70927011  0.48678603  0.22178801    -0.39440
O1676       O  0.70020987  0.53020158  0.22556617    -0.39500
C1677       C  0.74894712  0.40193820  0.13945630    -0.11780
C1678       C  0.72096619  0.39775990  0.14459119     0.05220
C1679       C  0.70621692  0.41735287  0.15997003    -0.07070
C1680       C  0.72068445  0.43914816  0.17229428    -0.07810
C1681       C  0.74937213  0.44124643  0.17028108    -0.02370
C1682       C  0.76332158  0.42367788  0.15184599     0.04450
N1683       N  0.79220259  0.42699987  0.14646842     0.66960
H1684       H  0.75992951  0.38727298  0.12691279     0.15860
H1685       H  0.70973134  0.45308854  0.18539521     0.15570
N1686       N  0.67705064  0.41459211  0.16448567     0.74660
O1687       O  0.80677232  0.40647875  0.14052748    -0.38790
O1688       O  0.80268213  0.45073043  0.14490498    -0.38730
O1689       O  0.66195884  0.40265184  0.14705085    -0.39440
O1690       O  0.66590315  0.42585412  0.18497423    -0.39500
C1691       C  0.81055037  0.43671245  0.20674458    -0.11780
C1692       C  0.78184480  0.43714617  0.21033257     0.05220
C1693       C  0.76904817  0.41515346  0.22462620    -0.07070
C1694       C  0.78491010  0.39297128  0.23317460    -0.07810
C1695       C  0.81249654  0.39022245  0.22526290    -0.02370
C1696       C  0.82590973  0.41298545  0.21291242     0.04450
N1697       N  0.85402239  0.41164996  0.20408742     0.66960
H1698       H  0.82045745  0.45336096  0.19570239     0.15860
H1699       H  0.77485972  0.37637509  0.24425025     0.15570
N1700       N  0.73974731  0.41365582  0.22862834     0.74660
O1701       O  0.86257704  0.39089514  0.19123108    -0.38790
O1702       O  0.86912239  0.43278638  0.20537542    -0.38730
O1703       O  0.72612340  0.43488191  0.23405966    -0.39440
O1704       O  0.72758817  0.39065888  0.22869665    -0.39500
C1705       C  0.50935373  0.73251832  0.14840732    -0.11780
C1706       C  0.53098678  0.74731282  0.13639587     0.05220
C1707       C  0.53008640  0.77637869  0.13633674    -0.07070
C1708       C  0.50808231  0.78953784  0.14960313    -0.07810
C1709       C  0.48787760  0.77476790  0.16428475    -0.02370
C1710       C  0.48837651  0.74572685  0.16290574     0.04450
N1711       N  0.47059979  0.72897352  0.17917957     0.66960
H1712       H  0.51044046  0.71028265  0.14926595     0.15860
H1713       H  0.50789354  0.81173664  0.15034341     0.15570
N1714       N  0.55217169  0.79282175  0.12508668     0.74660
O1715       O  0.45261035  0.71463901  0.16711548    -0.38790
O1716       O  0.47907202  0.72118098  0.20243007    -0.38730
O1717       O  0.55581469  0.81724237  0.13308435    -0.39440
O1718       O  0.56717140  0.78374582  0.10604769    -0.39500
C1719       C  0.50470209  0.78933697  0.22351538    -0.11780
C1720       C  0.48862450  0.80547308  0.20589403     0.05220
C1721       C  0.49418011  0.83395971  0.20434788    -0.07070
C1722       C  0.51760494  0.84485785  0.21724146    -0.07810
C1723       C  0.53564430  0.82793265  0.23192716    -0.02370
C1724       C  0.52786719  0.80022665  0.23698311     0.04450
N1725       N  0.54391696  0.78269507  0.25459949     0.66960
H1726       H  0.50001264  0.76765105  0.22551588     0.15860
H1727       H  0.52299527  0.86619421  0.21359954     0.15570
N1728       N  0.47779900  0.85181642  0.18795329     0.74660
O1729       O  0.55692271  0.79262924  0.27475415    -0.38790
O1730       O  0.54364188  0.75697101  0.25126393    -0.38730
O1731       O  0.45990568  0.86629795  0.19970989    -0.39440
O1732       O  0.48655550  0.85915407  0.16463476    -0.39500
C1733       C  0.42630643  0.80450128  0.23200302    -0.11780
C1734       C  0.42736725  0.81021747  0.20369969     0.05220
C1735       C  0.40794784  0.82871301  0.19233311    -0.07070
C1736       C  0.38645819  0.83832803  0.20879970    -0.07810
C1737       C  0.38354879  0.82979197  0.23610484    -0.02370
C1738       C  0.40417881  0.81341809  0.24828116     0.04450
N1739       N  0.40233225  0.80467010  0.27655036     0.66960
H1740       H  0.44164199  0.79124546  0.24101752     0.15860
H1741       H  0.37087672  0.85136392  0.19978599     0.15570
N1742       N  0.40909824  0.83715252  0.16395254     0.74660
O1743       O  0.41379221  0.78276658  0.28428232    -0.38790
O1744       O  0.39055002  0.81942581  0.29424714    -0.38730
O1745       O  0.43190938  0.84094600  0.15221560    -0.39440
O1746       O  0.38740042  0.84358482  0.15131618    -0.39500
C1747       C  0.42151411  0.78047420  0.14014740    -0.11780
C1748       C  0.42557305  0.77336480  0.16786094     0.05220
C1749       C  0.40702887  0.75461224  0.18047217    -0.07070
C1750       C  0.38446953  0.74504097  0.16549512    -0.07810
C1751       C  0.37790109  0.75556694  0.13947388    -0.02370
C1752       C  0.39694611  0.77350824  0.12613964     0.04450
N1753       N  0.39111298  0.78691805  0.10017454     0.66960
H1754       H  0.43609580  0.79435953  0.13058133     0.15860
H1755       H  0.37046131  0.73058389  0.17519864     0.15570
N1756       N  0.40969765  0.74614112  0.20881734     0.74660
O1757       O  0.40817175  0.80377401  0.09004042    -0.38790
O1758       O  0.36817788  0.78424083  0.08840574    -0.38730
O1759       O  0.43287351  0.74508800  0.22028844    -0.39440
O1760       O  0.38893519  0.73781532  0.22207037    -0.39500
C1761       C  0.10295100  0.50683334  0.79421082    -0.11780
C1762       C  0.13074868  0.50460711  0.78650827     0.05220
C1763       C  0.14136658  0.52385722  0.76730994    -0.07070
C1764       C  0.12512933  0.54553447  0.75821354    -0.07810
C1765       C  0.09932237  0.55054524  0.76976820    -0.02370
C1766       C  0.08729638  0.53009531  0.78682864     0.04450
N1767       N  0.06058691  0.53356348  0.79891920     0.66960
H1768       H  0.09465467  0.49259954  0.80924747     0.15860
H1769       H  0.13437279  0.56081241  0.74476301     0.15570
N1770       N  0.16971809  0.52438948  0.75972998     0.74660
O1771       O  0.04543478  0.51285081  0.80320801    -0.38790
O1772       O  0.05344299  0.55650565  0.80850502    -0.38730
O1773       O  0.17625911  0.51701709  0.73576966    -0.39440
O1774       O  0.18566781  0.54045550  0.77246773    -0.39500
C1775       C  0.15286112  0.52478829  0.83986665    -0.11780
C1776       C  0.16705065  0.50578010  0.82344212     0.05220
C1777       C  0.19622754  0.50617189  0.82378182    -0.07070
C1778       C  0.20994346  0.52617447  0.83944677    -0.07810
C1779       C  0.19548872  0.54643039  0.85366435    -0.02370
C1780       C  0.16657335  0.54532941  0.85467358     0.04450
N1781       N  0.15085891  0.56568054  0.86923432     0.66960
H1782       H  0.13063573  0.52429248  0.84030309     0.15860
H1783       H  0.23213304  0.52771446  0.83820433     0.15570
N1784       N  0.21244428  0.48874304  0.80652688     0.74660
O1785       O  0.12635560  0.57058496  0.86235030    -0.38790
O1786       O  0.16063589  0.57751208  0.89015888    -0.38730
O1787       O  0.20657317  0.48598184  0.78144042    -0.39440
O1788       O  0.23520604  0.47984793  0.81511638    -0.39500
C1789       C  0.18993700  0.43286959  0.81229604    -0.11780
C1790       C  0.16744147  0.44473264  0.82557853     0.05220
C1791       C  0.16174498  0.43717305  0.85329909    -0.07070
C1792       C  0.17780289  0.41643168  0.86576916    -0.07810
C1793       C  0.19965895  0.40403369  0.85171666    -0.02370
C1794       C  0.20713574  0.41418666  0.82550462     0.04450
N1795       N  0.23138747  0.40462199  0.81156557     0.66960
H1796       H  0.19400442  0.43790690  0.79106273     0.15860
H1797       H  0.17226387  0.40870663  0.88592920     0.15570
N1798       N  0.13916009  0.44882511  0.86849832     0.74660
O1799       O  0.23269929  0.40495195  0.78563624    -0.38790
O1800       O  0.25247686  0.39806014  0.82513357    -0.38730
O1801       O  0.12859264  0.47132834  0.86135713    -0.39440
O1802       O  0.13101429  0.43771415  0.89055049    -0.39500
C1803       C  0.10517654  0.43283177  0.80823836    -0.11780
C1804       C  0.12761059  0.44287286  0.79294965     0.05220
C1805       C  0.13440360  0.42968599  0.76795608    -0.07070
C1806       C  0.11985549  0.40601744  0.76010236    -0.07810
C1807       C  0.09913389  0.39465609  0.77666819    -0.02370
C1808       C  0.09096558  0.40872861  0.80070189     0.04450
N1809       N  0.07026545  0.39782250  0.81893830     0.66960
H1810       H  0.09990984  0.44273908  0.82737364     0.15860
H1811       H  0.12583424  0.39530486  0.74154719     0.15570
N1812       N  0.15707705  0.43874852  0.75126931     0.74660
O1813       O  0.07184794  0.40218286  0.84447125    -0.38790
O1814       O  0.04892538  0.38639969  0.80956618    -0.38730
O1815       O  0.16213479  0.46399143  0.74848806    -0.39440
O1816       O  0.17039208  0.42176971  0.73699382    -0.39500
C1817       C  0.51750534  0.20544966  0.85659453    -0.11780
C1818       C  0.53831619  0.18711770  0.86423595     0.05220
C1819       C  0.53410604  0.15867565  0.86093487    -0.07070
C1820       C  0.51034861  0.14955039  0.84751976    -0.07810
C1821       C  0.49098846  0.16794951  0.83651687    -0.02370
C1822       C  0.49391323  0.19627191  0.84255254     0.04450
N1823       N  0.47425857  0.21620720  0.83371285     0.66960
H1824       H  0.52068955  0.22731195  0.85950013     0.15860
H1825       H  0.50757594  0.12770850  0.84445982     0.15570
N1826       N  0.55419497  0.13896095  0.86994950     0.74660
O1827       O  0.46630804  0.23440358  0.85030563    -0.38790
O1828       O  0.46901126  0.21905798  0.80851301    -0.38730
O1829       O  0.56911044  0.14376703  0.89064268    -0.39440
O1830       O  0.55571601  0.11575997  0.85850440    -0.39500
C1831       C  0.52254516  0.14610427  0.75728055    -0.11780
C1832       C  0.53073506  0.11896795  0.76254158     0.05220
C1833       C  0.51431873  0.10253949  0.78020568    -0.07070
C1834       C  0.49187696  0.11440407  0.79372817    -0.07810
C1835       C  0.48684699  0.14272835  0.79188054    -0.02370
C1836       C  0.50164696  0.15838665  0.77240826     0.04450
N1837       N  0.49733455  0.18724780  0.76915925     0.66960
H1838       H  0.53387212  0.15866341  0.74269533     0.15860
H1839       H  0.48090291  0.10224494  0.80877506     0.15570
N1840       N  0.52188123  0.07507025  0.78749166     0.74660
O1841       O  0.51730911  0.20362794  0.77217426    -0.38790
O1842       O  0.47603511  0.19554677  0.75703263    -0.38730
O1843       O  0.54493730  0.07070432  0.79846090    -0.39440
O1844       O  0.50376387  0.05641825  0.78821572    -0.39500
C1845       C  0.42446884  0.14862243  0.77217784    -0.11780
C1846       C  0.42814287  0.13685432  0.79823930     0.05220
C1847       C  0.41289788  0.11307994  0.80541704    -0.07070
C1848       C  0.39267205  0.10328189  0.78731469    -0.07810
C1849       C  0.38766869  0.11644789  0.76217358    -0.02370
C1850       C  0.40480305  0.13846835  0.75377615     0.04450
N1851       N  0.40147674  0.15151782  0.72734682     0.66960
H1852       H  0.43601983  0.16678081  0.76673735     0.15860
H1853       H  0.37962495  0.08628087  0.79360212     0.15570
N1854       N  0.41699400  0.09923127  0.83118668     0.74660
O1855       O  0.40900895  0.17613924  0.72375011    -0.38790
O1856       O  0.39298043  0.13791675  0.70694082    -0.38730
O1857       O  0.44099326  0.09499557  0.83991736    -0.39440
O1858       O  0.39702675  0.08768981  0.84320878    -0.39500
C1859       C  0.41459311  0.19240199  0.82497962    -0.11780
C1860       C  0.42764105  0.16997364  0.83752537     0.05220
C1861       C  0.41832686  0.16110127  0.86373101    -0.07070
C1862       C  0.39459881  0.17313054  0.87508803    -0.07810
C1863       C  0.38056814  0.19416328  0.86131501    -0.02370
C1864       C  0.39187863  0.20522877  0.83689530     0.04450
N1865       N  0.38003970  0.22885360  0.82357273     0.66960
H1866       H  0.42133219  0.19910138  0.80483786     0.15860
H1867       H  0.38627176  0.16523330  0.89420744     0.15570
N1868       N  0.43177452  0.13939661  0.87852657     0.74660
O1869       O  0.38272923  0.23231672  0.79797253    -0.38790
O1870       O  0.36948377  0.24780639  0.83767480    -0.38730
O1871       O  0.45747538  0.13671435  0.87712696    -0.39440
O1872       O  0.41852335  0.12485636  0.89555491    -0.39500
C1873       C  0.81141926  0.77785271  0.53979583    -0.11780
C1874       C  0.78818187  0.76400187  0.52946770     0.05220
C1875       C  0.78030011  0.73885381  0.54188268    -0.07070
C1876       C  0.79296210  0.73074045  0.56644477    -0.07810
C1877       C  0.81388114  0.74655042  0.57841340    -0.02370
C1878       C  0.82427166  0.76969401  0.56426373     0.04450
N1879       N  0.84623741  0.78631973  0.57520228     0.66960
H1880       H  0.81816350  0.79672539  0.53008725     0.15860
H1881       H  0.78606089  0.71216935  0.57674980     0.15570
N1882       N  0.75965287  0.72135192  0.53006463     0.74660
O1883       O  0.86232749  0.79888696  0.55908442    -0.38790
O1884       O  0.84786495  0.79101347  0.60066470    -0.38730
O1885       O  0.75888596  0.71782453  0.50440743    -0.39440
O1886       O  0.74498062  0.70616043  0.54527809    -0.39500
C1887       C  0.76420894  0.82106453  0.54394501    -0.11780
C1888       C  0.75076089  0.79983738  0.52951844     0.05220
C1889       C  0.72226108  0.79564443  0.53458903    -0.07070
C1890       C  0.70928330  0.81078504  0.55532744    -0.07810
C1891       C  0.72392257  0.82915614  0.57195561    -0.02370
C1892       C  0.75156066  0.83517615  0.56556047     0.04450
N1893       N  0.76782059  0.85357105  0.58209455     0.66960
H1894       H  0.78535748  0.82594695  0.53948340     0.15860
H1895       H  0.68806327  0.80614137  0.56038479     0.15570
N1896       N  0.70612124  0.77546674  0.52035464     0.74660
O1897       O  0.79294937  0.84871553  0.58616960    -0.38790
O1898       O  0.75819145  0.87628012  0.58979828    -0.38730
O1899       O  0.71463709  0.75125651  0.51778900    -0.39440
O1900       O  0.68150029  0.78063930  0.51412585    -0.39500
C1901       C  0.72474764  0.78982890  0.46142399    -0.11780
C1902       C  0.75067437  0.80010568  0.46891998     0.05220
C1903       C  0.76081612  0.82400225  0.45571490    -0.07070
C1904       C  0.74579689  0.83555611  0.43398051    -0.07810
C1905       C  0.72068747  0.82410779  0.42566074    -0.02370
C1906       C  0.70915699  0.80203489  0.44060549     0.04450
N1907       N  0.68229592  0.79119088  0.43411248     0.66960
H1908       H  0.71737812  0.77094112  0.47040003     0.15860
H1909       H  0.75436549  0.85273300  0.42256596     0.15570
N1910       N  0.78683782  0.83585871  0.46311967     0.74660
O1911       O  0.67583982  0.76691237  0.44079065    -0.38790
O1912       O  0.66395793  0.80666763  0.42438547    -0.38730
O1913       O  0.80165388  0.84739089  0.44511706    -0.39440
O1914       O  0.79351608  0.83787963  0.48808966    -0.39500
C1915       C  0.77084773  0.74443841  0.45042069    -0.11780
C1916       C  0.78574163  0.76265923  0.46724807     0.05220
C1917       C  0.81395554  0.76676325  0.46143253    -0.07070
C1918       C  0.82521887  0.75618396  0.43717067    -0.07810
C1919       C  0.80922343  0.74077792  0.41878909    -0.02370
C1920       C  0.78227866  0.73300438  0.42665070     0.04450
N1921       N  0.76615002  0.71402859  0.41058697     0.66960
H1922       H  0.74964955  0.73980637  0.45526667     0.15860
H1923       H  0.84629290  0.76132662  0.43205665     0.15570
N1924       N  0.83179669  0.78126351  0.47964856     0.74660
O1925       O  0.77740809  0.69378284  0.39907652    -0.38790
O1926       O  0.74029533  0.71591563  0.40999929    -0.38730
O1927       O  0.84821489  0.76736279  0.49407692    -0.39440
O1928       O  0.83807298  0.80582899  0.47414111    -0.39500
C1929       C  0.73117571  0.14389144  0.54035865    -0.11780
C1930       C  0.75734691  0.13725041  0.53055867     0.05220
C1931       C  0.77213066  0.11552674  0.54334107    -0.07070
C1932       C  0.76125015  0.10326596  0.56721259    -0.07810
C1933       C  0.73653555  0.11223774  0.57862761    -0.02370
C1934       C  0.72075090  0.13216704  0.56461803     0.04450
N1935       N  0.69491550  0.14167861  0.57536896     0.66960
H1936       H  0.71941590  0.15945042  0.52978162     0.15860
H1937       H  0.77274645  0.08749803  0.57785837     0.15570
N1938       N  0.79785855  0.10557675  0.53250476     0.74660
O1939       O  0.68675899  0.16569375  0.57006467    -0.38790
O1940       O  0.67937025  0.12574579  0.58883255    -0.38730
O1941       O  0.80486479  0.11043679  0.50796946    -0.39440
O1942       O  0.81293443  0.09016214  0.54688296    -0.39500
C1943       C  0.79246357  0.21358966  0.56275587    -0.11780
C1944       C  0.81441098  0.20067938  0.57578708     0.05220
C1945       C  0.82640376  0.17755383  0.56313108    -0.07070
C1946       C  0.81481426  0.16747743  0.53850544    -0.07810
C1947       C  0.78956183  0.17734279  0.52831153    -0.02370
C1948       C  0.77933074  0.20184983  0.54017619     0.04450
N1949       N  0.75479524  0.21481843  0.53117549     0.66960
H1950       H  0.78376520  0.23197303  0.57172877     0.15860
H1951       H  0.82432201  0.15009416  0.52892932     0.15570
N1952       N  0.84830600  0.16249173  0.57601953     0.74660
O1953       O  0.73226422  0.20698868  0.54139883    -0.38790
O1954       O  0.75661051  0.23917829  0.52233249    -0.38730
O1955       O  0.84843984  0.15889084  0.60173510    -0.39440
O1956       O  0.86499235  0.14908273  0.56149113    -0.39500
C1957       C  0.80732577  0.17015903  0.45754851    -0.11780
C1958       C  0.78241531  0.18003458  0.46811704     0.05220
C1959       C  0.77201416  0.20552447  0.45818045    -0.07070
C1960       C  0.78600618  0.21869149  0.43648800    -0.07810
C1961       C  0.80916931  0.20715015  0.42398732    -0.02370
C1962       C  0.82060678  0.18303216  0.43531249     0.04450
N1963       N  0.84409659  0.16995602  0.42326239     0.66960
H1964       H  0.81512263  0.15069492  0.46498874     0.15860
H1965       H  0.77773601  0.23743671  0.42784191     0.15570
N1966       N  0.74694285  0.21785308  0.46825557     0.74660
O1967       O  0.86115643  0.15770744  0.43844267    -0.38790
O1968       O  0.84571027  0.16700740  0.39754146    -0.38730
O1969       O  0.73061074  0.20497288  0.48382166    -0.39440
O1970       O  0.74052974  0.24188919  0.46092497    -0.39500
C1971       C  0.74789409  0.10016588  0.43800352    -0.11780
C1972       C  0.73549003  0.11463553  0.41646875     0.05220
C1973       C  0.72484142  0.14091265  0.42207928    -0.07070
C1974       C  0.73173172  0.15386989  0.44673343    -0.07810
C1975       C  0.74755386  0.14110915  0.46739652    -0.02370
C1976       C  0.75207500  0.11236078  0.46397742     0.04450
N1977       N  0.75368281  0.09405855  0.48693307     0.66960
H1978       H  0.75317896  0.07879514  0.43505901     0.15860
H1979       H  0.72515957  0.17462964  0.44876127     0.15570
N1980       N  0.70711133  0.15485247  0.40296079     0.74660
O1981       O  0.76949417  0.07363735  0.48554773    -0.38790
O1982       O  0.73298262  0.09226518  0.50248347    -0.38730
O1983       O  0.68795435  0.14189139  0.39111227    -0.39440
O1984       O  0.70860019  0.18061743  0.40014273    -0.39500
C1985       C  0.19407608  0.81288311  0.56833740    -0.11780
C1986       C  0.17748594  0.83378168  0.57881755     0.05220
C1987       C  0.15349804  0.84140913  0.56422253    -0.07070
C1988       C  0.14629365  0.82665045  0.54028323    -0.07810
C1989       C  0.16157236  0.80389855  0.53140394    -0.02370
C1990       C  0.18628154  0.79745245  0.54532950     0.04450
N1991       N  0.20283497  0.77431495  0.53772995     0.66960
H1992       H  0.21245251  0.80720212  0.57953601     0.15860
H1993       H  0.12734666  0.83147745  0.52971447     0.15570
N1994       N  0.13515871  0.86224389  0.57432599     0.74660
O1995       O  0.21645496  0.76156541  0.55574828    -0.38790
O1996       O  0.20663520  0.76859191  0.51279376    -0.38730
O1997       O  0.14393549  0.88173864  0.58900690    -0.39440
O1998       O  0.11023417  0.86222230  0.56713114    -0.39500
C1999       C  0.13071777  0.72337915  0.56042728    -0.11780
C2000       C  0.10752811  0.73374319  0.57394577     0.05220
C2001       C  0.09473657  0.75757201  0.56341476    -0.07070
C2002       C  0.10666991  0.77124977  0.54085456    -0.07810
C2003       C  0.13128468  0.76221568  0.52881064    -0.02370
C2004       C  0.14257525  0.73705443  0.53783474     0.04450
N2005       N  0.16594502  0.72511200  0.52456114     0.66960
H2006       H  0.13990832  0.70455510  0.56788294     0.15860
H2007       H  0.09789397  0.79050702  0.53406675     0.15570
N2008       N  0.07108959  0.76945373  0.57643292     0.74660
O2009       O  0.18255310  0.71060802  0.53816835    -0.38790
O2010       O  0.16735533  0.72489305  0.49869075    -0.38730
O2011       O  0.06959557  0.77085668  0.60230161    -0.39440
O2012       O  0.05341538  0.78186353  0.56211471    -0.39500
C2013       C  0.10727802  0.75475049  0.46849159    -0.11780
C2014       C  0.13431724  0.76510568  0.46630009     0.05220
C2015       C  0.14941978  0.75885448  0.44231748    -0.07070
C2016       C  0.13603656  0.74718677  0.41998138    -0.07810
C2017       C  0.10968455  0.73528606  0.42208592    -0.02370
C2018       C  0.09549596  0.73834369  0.44746037     0.04450
N2019       N  0.06978989  0.72466247  0.45262567     0.66960
H2020       H  0.09522092  0.75933518  0.48652546     0.15860
H2021       H  0.14714596  0.74707594  0.40078697     0.15570
N2022       N  0.17855710  0.76375825  0.44034182     0.74660
O2023       O  0.05171137  0.73606962  0.46720943    -0.38790
O2024       O  0.06680982  0.69966766  0.44635285    -0.38730
O2025       O  0.19389543  0.75765249  0.46027496    -0.39440
O2026       O  0.18956333  0.76865045  0.41733581    -0.39500
C2027       C  0.18340397  0.81754973  0.46830884    -0.11780
C2028       C  0.15508690  0.81246748  0.47078497     0.05220
C2029       C  0.13713088  0.82515532  0.45175503    -0.07070
C2030       C  0.14806201  0.83744046  0.42793422    -0.07810
C2031       C  0.17641533  0.83805276  0.42306679    -0.02370
C2032       C  0.19456552  0.82945932  0.44423495     0.04450
N2033       N  0.22401539  0.82988743  0.44067450     0.66960
H2034       H  0.19712814  0.80897650  0.48341228     0.15860
H2035       H  0.13432095  0.84497691  0.41213858     0.15570
N2036       N  0.10777570  0.82355229  0.45533310     0.74660
O2037       O  0.23901906  0.81416526  0.45479824    -0.38790
O2038       O  0.23543331  0.84705298  0.42484177    -0.38730
O2039       O  0.09756112  0.82096605  0.47906753    -0.39440
O2040       O  0.09185269  0.82674509  0.43509716    -0.39500
C2041       C  0.50671733  0.12611025  0.19150549    -0.11780
C2042       C  0.49079460  0.14490729  0.20653323     0.05220
C2043       C  0.49511720  0.14696527  0.23533788    -0.07070
C2044       C  0.51684247  0.13229236  0.24729831    -0.07810
C2045       C  0.53420571  0.11576068  0.23149331    -0.02370
C2046       C  0.52842003  0.11164253  0.20342017     0.04450
N2047       N  0.54495055  0.09415402  0.18629318     0.66960
H2048       H  0.50329935  0.12378011  0.16966911     0.15860
H2049       H  0.52142832  0.13522797  0.26890640     0.15570
N2050       N  0.47888734  0.16425349  0.25279737     0.74660
O2051       O  0.53413732  0.08178286  0.16619139    -0.38790
O2052       O  0.57067504  0.09310205  0.18929010    -0.38730
O2053       O  0.47287216  0.18833902  0.24556770    -0.39440
O2054       O  0.47369333  0.15679224  0.27714141    -0.39500
C2055       C  0.49179156  0.17037690  0.14291618    -0.11780
C2056       C  0.48769899  0.18080414  0.16956658     0.05220
C2057       C  0.50466790  0.20276653  0.17844318    -0.07070
C2058       C  0.52590763  0.21230467  0.16170316    -0.07810
C2059       C  0.53298699  0.19866162  0.13745236    -0.02370
C2060       C  0.51484006  0.17834973  0.12711384     0.04450
N2061       N  0.52095111  0.16356785  0.10243878     0.66960
H2062       H  0.47903491  0.15350596  0.13582186     0.15860
H2063       H  0.53947111  0.22813850  0.16972199     0.15570
N2064       N  0.50364095  0.21307959  0.20586129     0.74660
O2065       O  0.51904828  0.13769413  0.10219437    -0.38790
O2066       O  0.52320651  0.17629238  0.07992664    -0.38730
O2067       O  0.52208035  0.20572194  0.22253579    -0.39440
O2068       O  0.49125880  0.23532399  0.21027141    -0.39500
C2069       C  0.40897849  0.15314299  0.15228538    -0.11780
C2070       C  0.42603022  0.17100598  0.16745705     0.05220
C2071       C  0.42125005  0.19960567  0.16537746    -0.07070
C2072       C  0.39875657  0.20915969  0.15002346    -0.07810
C2073       C  0.38032565  0.19088301  0.13738681    -0.02370
C2074       C  0.38596762  0.16252318  0.13771390     0.04450
N2075       N  0.36771092  0.14287359  0.12500955     0.66960
H2076       H  0.41266109  0.13136556  0.15279938     0.15860
H2077       H  0.39412237  0.23091728  0.15016105     0.15570
N2078       N  0.43704414  0.21913814  0.18070212     0.74660
O2079       O  0.36640334  0.11849708  0.13388816    -0.38790
O2080       O  0.35412004  0.14917598  0.10383794    -0.38730
O2081       O  0.44557571  0.24073350  0.16898799    -0.39440
O2082       O  0.43683807  0.21810668  0.20659695    -0.39500
C2083       C  0.42028122  0.15628788  0.23268760    -0.11780
C2084       C  0.43040429  0.14172954  0.21010221     0.05220
C2085       C  0.42229067  0.11379018  0.20662126    -0.07070
C2086       C  0.40110774  0.10321758  0.22355138    -0.07810
C2087       C  0.38963998  0.11901195  0.24473990    -0.02370
C2088       C  0.40190965  0.14449770  0.25133273     0.04450
N2089       N  0.39449025  0.15926564  0.27589052     0.66960
H2090       H  0.42588813  0.17751788  0.23538479     0.15860
H2091       H  0.39222351  0.08330993  0.21898802     0.15570
N2092       N  0.43378565  0.09643811  0.18550087     0.74660
O2093       O  0.39784001  0.18497290  0.27728823    -0.38790
O2094       O  0.38701092  0.14635017  0.29718769    -0.38730
O2095       O  0.45341596  0.10458182  0.17060498    -0.39440
O2096       O  0.42505512  0.07216314  0.18236067    -0.39500
C2097       C  0.18849544  0.50671634  0.17564087    -0.11780
C2098       C  0.16079623  0.50478316  0.16779107     0.05220
C2099       C  0.15025591  0.52354964  0.14812480    -0.07070
C2100       C  0.16748490  0.54419887  0.13766337    -0.07810
C2101       C  0.19456636  0.54713863  0.14681271    -0.02370
C2102       C  0.20547990  0.52805325  0.16581416     0.04450
N2103       N  0.23313930  0.53064775  0.17610480     0.66960
H2104       H  0.19651506  0.49222042  0.19047424     0.15860
H2105       H  0.15933209  0.55901637  0.12317889     0.15570
N2106       N  0.12212284  0.52225421  0.13893613     0.74660
O2107       O  0.23936696  0.52085935  0.19933526    -0.38790
O2108       O  0.25181334  0.54143821  0.16157960    -0.38730
O2109       O  0.11000156  0.49942682  0.13620952    -0.39440
O2110       O  0.11006391  0.54378120  0.13107486    -0.39500
C2111       C  0.12317324  0.54711054  0.23007599    -0.11780
C2112       C  0.09719527  0.55343972  0.21957053     0.05220
C2113       C  0.08313379  0.53357292  0.20359831    -0.07070
C2114       C  0.09673213  0.50903446  0.19665388    -0.07810
C2115       C  0.12451981  0.50489376  0.20350163    -0.02370
C2116       C  0.13721871  0.52354012  0.22202094     0.04450
N2117       N  0.16496924  0.52001198  0.23142509     0.66960
H2118       H  0.13335271  0.56161827  0.24361081     0.15860
H2119       H  0.08668310  0.49486168  0.18278093     0.15570
N2120       N  0.05639930  0.53877022  0.19215675     0.74660
O2121       O  0.18006280  0.54068007  0.23608057    -0.38790
O2122       O  0.17347233  0.49657092  0.23817791    -0.38730
O2123       O  0.05036519  0.56232192  0.18315952    -0.39440
O2124       O  0.04008612  0.51902332  0.18765995    -0.39500
C2125       C  0.09360389  0.43586711  0.18927703    -0.11780
C2126       C  0.11829308  0.44575449  0.20073129     0.05220
C2127       C  0.12768371  0.43409158  0.22569321    -0.07070
C2128       C  0.11445480  0.41081680  0.23634966    -0.07810
C2129       C  0.09331592  0.39767454  0.22180421    -0.02370
C2130       C  0.08157214  0.41118724  0.19879067     0.04450
N2131       N  0.06019521  0.39863124  0.18263932     0.66960
H2132       H  0.08657585  0.44450613  0.16998480     0.15860
H2133       H  0.12298419  0.40096604  0.25442640     0.15570
N2134       N  0.15292987  0.44265114  0.23823476     0.74660
O2135       O  0.04263218  0.41350464  0.17077124    -0.38790
O2136       O  0.06143464  0.37350094  0.17643067    -0.38730
O2137       O  0.15401956  0.44541803  0.26401839    -0.39440
O2138       O  0.17507264  0.44139596  0.22480895    -0.39500
C2139       C  0.15035499  0.41126364  0.16732521    -0.11780
C2140       C  0.15519693  0.43984254  0.16359370     0.05220
C2141       C  0.17648004  0.44664034  0.14426502    -0.07070
C2142       C  0.19618906  0.42664966  0.13717686    -0.07810
C2143       C  0.19217809  0.39909890  0.14424780    -0.02370
C2144       C  0.16741683  0.39126018  0.15670199     0.04450
N2145       N  0.15948396  0.36282523  0.15892967     0.66960
H2146       H  0.13306624  0.40334713  0.17851798     0.15860
H2147       H  0.21356743  0.43219439  0.12436438     0.15570
N2148       N  0.17454750  0.46977860  0.12622204     0.74660
O2149       O  0.15019820  0.35339521  0.18124479    -0.38790
O2150       O  0.16103325  0.34720689  0.13831611    -0.38730
O2151       O  0.19618475  0.48178843  0.11818066    -0.39440
O2152       O  0.15282900  0.47284492  0.11244349    -0.39500
C2153       C  0.13587318  0.19896825  0.53467815    -0.11780
C2154       C  0.12147057  0.17426355  0.53010987     0.05220
C2155       C  0.09678070  0.16961787  0.54467591    -0.07070
C2156       C  0.08851235  0.18816793  0.56490608    -0.07810
C2157       C  0.10428675  0.21150899  0.57113496    -0.02370
C2158       C  0.12733688  0.21794756  0.55455692     0.04450
N2159       N  0.14264204  0.24311483  0.55821271     0.66960
H2160       H  0.15469123  0.20299858  0.52359801     0.15860
H2161       H  0.07075903  0.18295726  0.57734686     0.15570
N2162       N  0.08048928  0.14549906  0.54069436     0.74660
O2163       O  0.16767108  0.24449555  0.55150146    -0.38790
O2164       O  0.13067140  0.26470706  0.56592696    -0.38730
O2165       O  0.08540620  0.12473455  0.55537938    -0.39440
O2166       O  0.05660020  0.14825940  0.53103068    -0.39500
C2167       C  0.17757333  0.14818546  0.54115931    -0.11780
C2168       C  0.15443695  0.13475747  0.53010762     0.05220
C2169       C  0.14668179  0.10877513  0.54112410    -0.07070
C2170       C  0.16005961  0.09913819  0.56490224    -0.07810
C2171       C  0.18107998  0.11432479  0.57748222    -0.02370
C2172       C  0.19122453  0.13822543  0.56441841     0.04450
N2173       N  0.21471906  0.15299014  0.57492536     0.66960
H2174       H  0.18417845  0.16760599  0.53258910     0.15860
H2175       H  0.15311533  0.08027284  0.57458284     0.15570
N2176       N  0.12482771  0.09243215  0.52951006     0.74660
O2177       O  0.21711213  0.17854005  0.57093489    -0.38790
O2178       O  0.23439608  0.14021721  0.58589526    -0.38730
O2179       O  0.11828261  0.09498462  0.50461566    -0.39440
O2180       O  0.11385230  0.07328521  0.54331106    -0.39500
C2181       C  0.13807827  0.11511739  0.45096707    -0.11780
C2182       C  0.15187518  0.13425908  0.46773499     0.05220
C2183       C  0.18006375  0.13949198  0.46233273    -0.07070
C2184       C  0.19236395  0.12813061  0.43887113    -0.07810
C2185       C  0.17735311  0.11152457  0.42072253    -0.02370
C2186       C  0.15023750  0.10378243  0.42751041     0.04450
N2187       N  0.13418021  0.08566392  0.41036246     0.66960
H2188       H  0.11693252  0.11005467  0.45495726     0.15860
H2189       H  0.21344066  0.13352654  0.43396059     0.15570
N2190       N  0.19652566  0.15667484  0.47968921     0.74660
O2191       O  0.11583472  0.07056009  0.42096673    -0.38790
O2192       O  0.13637371  0.08635893  0.38451144    -0.38730
O2193       O  0.21929290  0.14788187  0.48834107    -0.39440
O2194       O  0.19175352  0.18203607  0.48108939    -0.39500
C2195       C  0.08637367  0.18573991  0.43409966    -0.11780
C2196       C  0.10108870  0.20987946  0.42838853     0.05220
C2197       C  0.12283661  0.21790294  0.44576212    -0.07070
C2198       C  0.13157621  0.19969268  0.46619768    -0.07810
C2199       C  0.11892561  0.17399486  0.47016740    -0.02370
C2200       C  0.09469946  0.16773043  0.45508474     0.04450
N2201       N  0.07877923  0.14317881  0.46006954     0.66960
H2202       H  0.06914218  0.18022911  0.42109722     0.15860
H2203       H  0.14918054  0.20534183  0.47825266     0.15570
N2204       N  0.13678621  0.24389584  0.44224942     0.74660
O2205       O  0.06252115  0.13407902  0.44197422    -0.38790
O2206       O  0.07958358  0.13128403  0.48308257    -0.38730
O2207       O  0.12399478  0.26458354  0.43334808    -0.39440
O2208       O  0.16129958  0.24691882  0.45022987    -0.39500
loop_ 
_geom_bond_atom_site_label_1 
_geom_bond_atom_site_label_2 
_geom_bond_distance 
_geom_bond_site_symmetry_2 
_ccdc_geom_bond_type 
C1            C2   1.369       .  D
C1         C2154   1.500       .  S
C1         C2168   1.497       .  S
C2         C2182   1.503       .  S
C2         C2199   1.498       .  S
C3            C4   1.378       .  D
C3         C2126   1.502       .  S
C3         C2140   1.552       .  S
C4         C2098   1.483       .  S
C4         C2115   1.507       .  S
C5            C6   1.370       .  D
C5         C2070   1.505       .  S
C5         C2084   1.496       .  S
C6         C2042   1.501       .  S
C6         C2056   1.500       .  S
C7            C8   1.370       .  D
C7         C2014   1.508       .  S
C7         C2028   1.507       .  S
C8         C1989   1.498       .  S
C8         C2003   1.499       .  S
C9           C10   1.377       .  D
C9         C1958   1.496       .  S
C9         C1975   1.535       .  S
C10        C1930   1.485       .  S
C10        C1947   1.516       .  S
C11          C12   1.366       .  D
C11        C1902   1.493       .  S
C11        C1916   1.501       .  S
C12        C1874   1.497       .  S
C12        C1888   1.509       .  S
C13          C14   1.366       .  D
C13        C1846   1.493       .  S
C13        C1860   1.495       .  S
C14        C1821   1.498       .  S
C14        C1835   1.498       .  S
C15          C16   1.371       .  D
C15        C1790   1.496       .  S
C15        C1804   1.495       .  S
C16        C1762   1.504       .  S
C16        C1776   1.501       .  S
C17          C18   1.369       .  D
C17        C1734   1.499       .  S
C17        C1748   1.496       .  S
C18        C1709   1.507       .  S
C18        C1720   1.500       .  S
C19          C20   1.364       .  D
C19        C1681   1.499       .  S
C19        C1692   1.495       .  S
C20        C1650   1.496       .  S
C20        C1664   1.499       .  S
C21          C22   1.374       .  D
C21        C1622   1.511       .  S
C21        C1636   1.490       .  S
C22        C1594   1.523       .  S
C22        C1608   1.489       .  S
C23          C24   1.370       .  D
C23        C1538   1.486       .  S
C23        C1552   1.512       .  S
C24        C1566   1.489       .  S
C24        C1580   1.510       .  S
C25          C26   1.407       .  A
C25          C30   1.406       .  A
C25        C1524   1.489       .  S
C26          C27   1.409       .  A
C26          H31   1.083       .  S
C27          C28   1.406       .  A
C27        C1555   1.481       .  S
C28          C29   1.403       .  A
C28          H32   1.084       .  S
C29          C30   1.405       .  A
C29          C88   1.486       .  S
C30          H33   1.084       .  S
C34          C35   1.406       .  A
C34          C39   1.401       .  A
C34        C1510   1.478       .  S
C35          C36   1.407       .  A
C35          H40   1.083       .  S
C36          C37   1.406       .  A
C36        C1597   1.480       .  S
C37          C38   1.405       .  A
C37          H41   1.084       .  S
C38          C39   1.396       .  A
C38          C95   1.481       .  S
C39          H42   1.085       .  S
C43          C44   1.411       .  A
C43          C48   1.407       .  A
C43        C1496   1.491       .  S
C44          C45   1.412       .  A
C44          H49   1.083       .  S
C45          C46   1.405       .  A
C45        C1611   1.490       .  S
C46          C47   1.392       .  A
C46          H50   1.083       .  S
C47          C48   1.405       .  A
C47          C96   1.480       .  S
C48          H51   1.084       .  S
C52          C53   1.404       .  A
C52          C57   1.403       .  A
C52        C1877   1.474       .  S
C53          C54   1.401       .  A
C53          H58   1.084       .  S
C54          C55   1.395       .  A
C54         C120   1.476       .  S
C55          C56   1.404       .  A
C55          H59   1.084       .  S
C56          C57   1.402       .  A
C56        C1482   1.477       .  S
C57          H60   1.081       .  S
C61          C62   1.404       .  A
C61          C66   1.402       .  A
C61        C1468   1.473       .  S
C62          C63   1.403       .  A
C62          H67   1.083       .  S
C63          C64   1.403       .  A
C63        C1891   1.478       .  S
C64          C65   1.403       .  A
C64          H68   1.084       .  S
C65          C66   1.403       .  A
C65         C122   1.480       .  S
C66          H69   1.084       .  S
C70          C71   1.409       .  A
C70          C75   1.411       .  A
C70        C1454   1.492       .  S
C71          C72   1.409       .  A
C71          H76   1.080       .  S
C72          C73   1.406       .  A
C72        C1541   1.488       .  S
C73          C74   1.396       .  A
C73          H77   1.083       .  S
C74          C75   1.397       .  A
C74          C84   1.481       .  S
C75          H78   1.083       .  S
O79         Mg81   2.138       .  S
O79         Mg87   2.168       .  S
O79         C114   1.233       .  S
C80         H119   1.081       .  S
C80          O93   1.234       .  S
C80         O117   1.268       .  A
Mg81        O110   2.165       .  S
Mg81        O125   2.278       .  S
Mg81        O121   2.240       .  S
Mg81         O92   2.290       .  S
O82        Mg124   2.162       .  S
O82        Mg107   2.162       .  S
O82         C103   1.235       .  S
O83         C114   1.266       .  A
O83        Mg107   2.290       .  S
C84          O86   1.272       .  A
C84          O98   1.276       .  A
O85         C113   1.266       .  A
O85         Mg87   2.285       .  S
O86        Mg118   2.250       .  S
Mg87         O93   2.144       .  S
Mg87        O101   2.242       .  S
Mg87         O89   2.270       .  S
C88         O126   1.273       .  A
C88          O94   1.275       .  A
O89          C96   1.270       .  A
H90         C103   1.081       .  S
C91         H116   1.081       .  S
C91         O105   1.234       .  S
C91         O106   1.269       .  A
O92         C115   1.267       .  A
O93        Mg107   2.167       .  S
O94        Mg124   2.304       .  S
C95         O108   1.273       .  A
C95         O100   1.273       .  A
C96         O123   1.274       .  A
Mg97        O104   2.149       .  S
Mg97        O105   2.155       .  S
Mg97         O98   2.303       .  S
Mg97         O99   2.307       .  S
Mg97        O126   2.275       .  S
O99         C103   1.271       .  A
O100       Mg107   2.291       .  S
O101        C120   1.270       .  A
O102        C122   1.276       .  A
O102       Mg118   2.306       .  S
O104       Mg118   2.170       .  S
O104        C115   1.234       .  S
O105       Mg124   2.148       .  S
O106       Mg118   2.297       .  S
Mg107       O123   2.272       .  S
O108       Mg124   2.258       .  S
H109        C114   1.081       .  S
O110       Mg118   2.134       .  S
O110        C113   1.233       .  S
H111        C113   1.081       .  S
H112        C115   1.081       .  S
O117       Mg124   2.296       .  S
C120        O125   1.271       .  A
O121        C122   1.270       .  A
C127        C128   1.376   1_556  D
C127       C1513   1.494       .  S
C127       C1527   1.512       .  S
C128       C1426   1.503       .  S
C128       C1440   1.521       .  S
C129        C130   1.360       .  D
C129       C1457   1.488       .  S
C129       C1471   1.494       .  S
C130       C1398   1.490       .  S
C130       C1412   1.500   1_565  S
C131        C132   1.367       .  D
C131       C1370   1.503       .  S
C131       C1384   1.516       .  S
C132       C1485   1.481       .  S
C132       C1499   1.501       .  S
C133        C134   1.410       .  A
C133        C138   1.411       .  A
C133       C1639   1.489       .  S
C134        C135   1.395       .  A
C134        H139   1.084       .  S
C135        C136   1.395       .  A
C135        C203   1.476       .  S
C136        C137   1.410       .  A
C136        H140   1.085       .  S
C137        C138   1.409       .  A
C137       C1359   1.490       .  S
C138        H141   1.077       .  S
C142        C143   1.407       .  A
C142        C147   1.401       .  A
C142       C1818   1.476       .  S
C143        C144   1.405       .  A
C143        H148   1.084       .  S
C144        C145   1.398       .  A
C144        C196   1.477       .  S
C145        C146   1.403       .  A
C145        H149   1.085       .  S
C146        C147   1.401       .  A
C146       C1342   1.468       .  S
C147        H150   1.084       .  S
C151        C152   1.402       .  A
C151        C156   1.404       .  A
C151       C1625   1.475       .  S
C152        C153   1.400       .  A
C152        H157   1.085       .  S
C153        C154   1.398       .  A
C153        C204   1.473       .  S
C154        C155   1.405       .  A
C154        H158   1.085       .  S
C155        C156   1.405       .  A
C155       C1328   1.475       .  S
C156        H159   1.083       .  S
C160        C161   1.409       .  A
C160        C165   1.406       .  A
C160       C1944   1.484       .  S
C161        C162   1.399       .  A
C161        H166   1.084       .  S
C162        C163   1.396       .  A
C162        C228   1.474       .  S
C163        C164   1.402       .  A
C163        H167   1.085       .  S
C164        C165   1.405       .  A
C164       C1314   1.474       .  S
C165        H168   1.083       .  S
C169        C170   1.404       .  A
C169        C174   1.403       .  A
C169       C1933   1.476       .  S
C170        C171   1.407       .  A
C170        H175   1.083       .  S
C171        C172   1.411       .  A
C171       C1401   1.488       .  S
C172        C173   1.396       .  A
C172        H176   1.084       .  S
C173        C174   1.401       .  A
C173        C230   1.475       .  S
C174        H177   1.085       .  S
C178        C179   1.410       .  A
C178        C183   1.409       .  A
C178       C1832   1.490       .  S
C179        C180   1.405       .  A
C179        H184   1.083       .  S
C180        C181   1.400       .  A
C180       C1415   1.473       .  S
C181        C182   1.397       .  A
C181        H185   1.085       .  S
C182        C183   1.395       .  A
C182        C192   1.469       .  S
C183        H186   1.084       .  S
O187       Mg189   2.151       .  S
O187       Mg195   2.135       .  S
O187        C222   1.236       .  S
C188        H227   1.081       .  S
C188        O201   1.235       .  S
C188        O225   1.271       .  A
Mg189       O218   2.136       .  S
Mg189       O233   2.288       .  S
Mg189       O229   2.246       .  S
Mg189       O200   2.309       .  S
O190       Mg232   2.144       .  S
O190       Mg215   2.150       .  S
O190        C211   1.235       .  S
O191        C222   1.272       .  A
O191       Mg215   2.311       .  S
C192        O194   1.269       .  A
C192        O206   1.272       .  A
O193        C221   1.272       .  A
O193       Mg195   2.314       .  S
O194       Mg226   2.250       .  S
Mg195       O201   2.154       .  S
Mg195       O209   2.267       .  S
Mg195       O197   2.304       .  S
C196        O234   1.270       .  A
C196        O202   1.275       .  A
O197        C204   1.273       .  A
H198        C211   1.081       .  S
C199        H224   1.081       .  S
C199        O213   1.235       .  S
C199        O214   1.270       .  A
O200        C223   1.271       .  A
O201       Mg215   2.141       .  S
O202       Mg232   2.309       .  S
C203        O216   1.271       .  A
C203        O208   1.273       .  A
C204        O231   1.269       .  A
Mg205       O212   2.158       .  S
Mg205       O213   2.148       .  S
Mg205       O206   2.291       .  S
Mg205       O207   2.305       .  S
Mg205       O234   2.263       .  S
O207        C211   1.270       .  A
O208       Mg215   2.302       .  S
O209        C228   1.270       .  A
O210        C230   1.274       .  A
O210       Mg226   2.312       .  S
O212       Mg226   2.149       .  S
O212        C223   1.235       .  S
O213       Mg232   2.152       .  S
O214       Mg226   2.308       .  S
Mg215       O231   2.253       .  S
O216       Mg232   2.269       .  S
H217        C222   1.081       .  S
O218       Mg226   2.145       .  S
O218        C221   1.236       .  S
H219        C221   1.081       .  S
H220        C223   1.081       .  S
O225       Mg232   2.311       .  S
C228        O233   1.269       .  A
O229        C230   1.267       .  A
C235        C236   1.412       .  A
C235        C240   1.411       .  A
C235       C1300   1.495       .  S
C236        C237   1.406       .  A
C236        H241   1.082       .  S
C237        C238   1.402       .  A
C237       C1569   1.480       .  S
C238        C239   1.392       .  A
C238        H242   1.085       .  S
C239        C240   1.395       .  A
C239        C298   1.470       .  S
C240        H243   1.083       .  S
C244        C245   1.405       .  A
C244        C249   1.404       .  A
C244       C1286   1.476       .  S
C245        C246   1.402       .  A
C245        H250   1.084       .  S
C246        C247   1.399       .  A
C246        C305   1.474       .  S
C247        C248   1.401       .  A
C247        H251   1.085       .  S
C248        C249   1.402       .  A
C248       C1779   1.470       .  S
C249        H252   1.084       .  S
C253        C254   1.408       .  A
C253        C258   1.408       .  A
C253       C1583   1.484       .  S
C254        C255   1.404       .  A
C254        H259   1.084       .  S
C255        C256   1.400       .  A
C255        C294   1.479       .  S
C256        C257   1.404       .  A
C256        H260   1.085       .  S
C257        C258   1.405       .  A
C257       C1272   1.483       .  S
C258        H261   1.083       .  S
C262        C263   1.408       .  A
C262        C267   1.410       .  A
C262       C1986   1.485       .  S
C263        C264   1.400       .  A
C263        H268   1.085       .  S
C264        C265   1.397       .  A
C264        C332   1.476       .  S
C265        C266   1.406       .  A
C265        H269   1.085       .  S
C266        C267   1.409       .  A
C266       C1258   1.486       .  S
C267        H270   1.083       .  S
C271        C272   1.413       .  A
C271        C276   1.408       .  A
C271       C1765   1.489       .  S
C272        C273   1.419       .  A
C272        H277   1.081       .  S
C273        C274   1.412       .  A
C273       C1373   1.504       .  S
C274        C275   1.383       .  A
C274        H278   1.082       .  S
C275        C276   1.392       .  A
C275        C306   1.471       .  S
C276        H279   1.085       .  S
C280        C281   1.408       .  A
C280        C285   1.406       .  A
C280       C2000   1.487       .  S
C281        C282   1.406       .  A
C281        H286   1.083       .  S
C282        C283   1.408       .  A
C282       C1387   1.483       .  S
C283        C284   1.404       .  A
C283        H287   1.083       .  S
C284        C285   1.404       .  A
C284        C330   1.485       .  S
C285        H288   1.084       .  S
O289       Mg291   2.162       .  S
O289       Mg297   2.145       .  S
O289        C324   1.237       .  S
C290        H329   1.081       .  S
C290        O303   1.236       .  S
C290        O327   1.271       .  A
Mg291       O320   2.148       .  S
Mg291       O335   2.307       .  S
Mg291       O331   2.278       .  S
Mg291       O302   2.306       .  S
O292       Mg334   2.145       .  S
O292       Mg317   2.133       .  S
O292        C313   1.236       .  S
O293        C324   1.273       .  A
O293       Mg317   2.313       .  S
C294        O296   1.274       .  A
C294        O308   1.272       .  A
O295        C323   1.273       .  A
O295       Mg297   2.316       .  S
O296       Mg328   2.283       .  S
Mg297       O303   2.153       .  S
Mg297       O311   2.300       .  S
Mg297       O299   2.332       .  S
C298        O336   1.270       .  A
C298        O304   1.272       .  A
O299        C306   1.280       .  A
H300        C313   1.081       .  S
C301        H326   1.081       .  S
C301        O315   1.235       .  S
C301        O316   1.270       .  A
O302        C325   1.271       .  A
O303       Mg317   2.148       .  S
O304       Mg334   2.287       .  S
C305        O318   1.269       .  A
C305        O310   1.273       .  A
C306        O333   1.266       .  A
Mg307       O314   2.143       .  S
Mg307       O315   2.144       .  S
Mg307       O308   2.300       .  S
Mg307       O309   2.299       .  S
Mg307       O336   2.250       .  S
O309        C313   1.270       .  A
O310       Mg317   2.298       .  S
O311        C330   1.275       .  A
O312        C332   1.274       .  A
O312       Mg328   2.300       .  S
O314       Mg328   2.139       .  S
O314        C325   1.236       .  S
O315       Mg334   2.138       .  S
O316       Mg328   2.301       .  S
Mg317       O333   2.242       .  S
O318       Mg334   2.257       .  S
H319        C324   1.081       .  S
O320       Mg328   2.163       .  S
O320        C323   1.236       .  S
H321        C323   1.081       .  S
H322        C325   1.081       .  S
O327       Mg334   2.306       .  S
C330        O335   1.275       .  A
O331        C332   1.272       .  A
C337        C338   1.370       .  D
C337       C1261   1.497       .  S
C337       C1275   1.495       .  S
C338       C1230   1.505   1_565  S
C338       C1244   1.500   1_565  S
C339        C340   1.407       .  A
C339        C344   1.404       .  A
C339       C1216   1.484       .  S
C340        C341   1.407       .  A
C340        H345   1.081       .  S
C341        C342   1.408       .  A
C341       C1863   1.486       .  S
C342        C343   1.404       .  A
C342        H346   1.084       .  S
C343        C344   1.398       .  A
C343        C436   1.482       .  S
C344        H347   1.084       .  S
C348        C349   1.412       .  A
C348        C353   1.409       .  A
C348       C1205   1.486       .  S
C349        C350   1.409       .  A
C349        H354   1.083       .  S
C350        C351   1.402       .  A
C350       C1793   1.490       .  S
C351        C352   1.397       .  A
C351        H355   1.084       .  S
C352        C353   1.404       .  A
C352        C434   1.483       .  S
C353        H356   1.084       .  S
C357        C358   1.403       .  A
C357        C362   1.408       .  A
C357       C2171   1.481       .  S
C358        C359   1.399       .  A
C358        H363   1.084       .  S
C359        C360   1.401       .  A
C359       C1247   1.470       .  S
C360        C361   1.401       .  A
C360        H364   1.084       .  S
C361        C362   1.405       .  A
C361        C402   1.482       .  S
C362        H365   1.084       .  S
C366        C367   1.410       .  A
C366        C371   1.406       .  A
C366       C1233   1.493       .  S
C367        C368   1.404       .  A
C367        H372   1.084       .  S
C368        C369   1.395       .  A
C368        C398   1.481       .  S
C369        C370   1.403       .  A
C369        H373   1.084       .  S
C370        C371   1.408       .  A
C370       C1849   1.476       .  S
C371        H374   1.083       .  S
C375        C376   1.404       .  A
C375        C380   1.404       .  A
C375       C1188   1.487       .  S
C376        C377   1.401       .  A
C376        H381   1.084       .  S
C377        C378   1.400       .  A
C377        C409   1.478       .  S
C378        C379   1.406       .  A
C378        H382   1.084       .  S
C379        C380   1.408       .  A
C379       C2157   1.485       .  S
C380        H383   1.083       .  S
C384        C385   1.403       .  A
C384        C389   1.403       .  A
C384       C1174   1.478       .  S
C385        C386   1.405       .  A
C385        H390   1.082       .  S
C386        C387   1.409       .  A
C386       C1807   1.483       .  S
C387        C388   1.405       .  A
C387        H391   1.084       .  S
C388        C389   1.399       .  A
C388        C410   1.483       .  S
C389        H392   1.085       .  S
O393       Mg395   2.154       .  S
O393       Mg401   2.166       .  S
O393        C428   1.235       .  S
C394        H433   1.081       .  S
C394        O407   1.235       .  S
C394        O431   1.269       .  A
Mg395       O424   2.169       .  S
Mg395       O439   2.316       .  S
Mg395       O435   2.258       .  S
Mg395       O406   2.293       .  S
O396       Mg438   2.164       .  S
O396       Mg421   2.140       .  S
O396        C417   1.234       .  S
O397        C428   1.269       .  A
O397       Mg421   2.298       .  S
C398        O400   1.274       .  A
C398        O412   1.272       .  A
O399        C427   1.268       .  A
O399       Mg401   2.293       .  S
O400       Mg432   2.274       .  S
Mg401       O407   2.144       .  S
Mg401       O415   2.241       .  S
Mg401       O403   2.305       .  S
C402        O440   1.271       .  A
C402        O408   1.275       .  A
O403        C410   1.274       .  A
H404        C417   1.081       .  S
C405        H430   1.081       .  S
C405        O419   1.235       .  S
C405        O420   1.268       .  A
O406        C429   1.268       .  A
O407       Mg421   2.156       .  S
O408       Mg438   2.304       .  S
C409        O422   1.271       .  A
C409        O414   1.275       .  A
C410        O437   1.272       .  A
Mg411       O418   2.143       .  S
Mg411       O419   2.162       .  S
Mg411       O412   2.281       .  S
Mg411       O413   2.289       .  S
Mg411       O440   2.253       .  S
O413        C417   1.268       .  A
O414       Mg421   2.294       .  S
O415        C434   1.272       .  A
O416        C436   1.275       .  A
O416       Mg432   2.299       .  S
O418       Mg432   2.160       .  S
O418        C429   1.234       .  S
O419       Mg438   2.137       .  S
O420       Mg432   2.292       .  S
Mg421       O437   2.256       .  S
O422       Mg438   2.249       .  S
H423        C428   1.081       .  S
O424       Mg432   2.154       .  S
O424        C427   1.234       .  S
H425        C427   1.081       .  S
H426        C429   1.081       .  S
O431       Mg438   2.298       .  S
C434        O439   1.276       .  A
O435        C436   1.274       .  A
C441        C442   1.369       .  D
C441       C1317   1.491       .  S
C441       C1331   1.505       .  S
C442       C1177   1.494       .  S
C442       C1191   1.508       .  S
C443        C444   1.374   1_554  D
C443       C1146   1.499       .  S
C443       C1163   1.501       .  S
C444       C1202   1.504       .  S
C444       C1219   1.497       .  S
C445        C446   1.372       .  D
C445       C1118   1.504   1_565  S
C445       C1132   1.506   1_565  S
C446       C1090   1.498       .  S
C446       C1104   1.499       .  S
C447        C448   1.404       .  A
C447        C452   1.410       .  A
C447       C1160   1.480       .  S
C448        C449   1.402       .  A
C448        H453   1.084       .  S
C449        C450   1.403       .  A
C449       C2143   1.476       .  S
C450        C451   1.395       .  A
C450        H454   1.085       .  S
C451        C452   1.409       .  A
C451        C510   1.485       .  S
C452        H455   1.084       .  S
C456        C457   1.410       .  A
C456        C461   1.409       .  A
C456       C1149   1.496       .  S
C457        C458   1.408       .  A
C457        H462   1.083       .  S
C458        C459   1.405       .  A
C458       C2073   1.479       .  S
C459        C460   1.402       .  A
C459        H463   1.084       .  S
C460        C461   1.398       .  A
C460        C517   1.484       .  S
C461        H464   1.082       .  S
C465        C466   1.409       .  A
C465        C470   1.410       .  A
C465       C1135   1.490       .  S
C466        C467   1.410       .  A
C466        H471   1.082       .  S
C467        C468   1.407       .  A
C467       C2087   1.489       .  S
C468        C469   1.394       .  A
C468        H472   1.084       .  S
C469        C470   1.402       .  A
C469        C518   1.482       .  S
C470        H473   1.084       .  S
C474        C475   1.404       .  A
C474        C479   1.406       .  A
C474       C2185   1.475       .  S
C475        C476   1.402       .  A
C475        H480   1.083       .  S
C476        C477   1.401       .  A
C476       C1121   1.473       .  S
C477        C478   1.401       .  A
C477        H481   1.085       .  S
C478        C479   1.405       .  A
C478        C542   1.482       .  S
C479        H482   1.084       .  S
C483        C484   1.398       .  A
C483        C488   1.406       .  A
C483       C1076   1.472       .  S
C484        C485   1.400       .  A
C484        H489   1.084       .  S
C485        C486   1.404       .  A
C485       C2196   1.474       .  S
C486        C487   1.402       .  A
C486        H490   1.084       .  S
C487        C488   1.406       .  A
C487        C544   1.484       .  S
C488        H491   1.084       .  S
C492        C493   1.406       .  A
C492        C497   1.409       .  A
C492       C1065   1.489       .  S
C493        C494   1.403       .  A
C493        H498   1.083       .  S
C494        C495   1.412       .  A
C494       C2129   1.487       .  S
C495        C496   1.403       .  A
C495        H499   1.081       .  S
C496        C497   1.401       .  A
C496        C506   1.491       .  S
C497        H500   1.083       .  S
O501       Mg503   2.149       .  S
O501       Mg509   2.166       .  S
O501        C536   1.234       .  S
C502        H541   1.081       .  S
C502        O515   1.234       .  S
C502        O539   1.268       .  A
Mg503       O532   2.166       .  S
Mg503       O547   2.310       .  S
Mg503       O543   2.259       .  S
Mg503       O514   2.296       .  S
O504       Mg546   2.163       .  S
O504       Mg529   2.153       .  S
O504        C525   1.235       .  S
O505        C536   1.268       .  A
O505       Mg529   2.294       .  S
C506        O508   1.274       .  A
C506        O520   1.281       .  A
O507        C535   1.268       .  A
O507       Mg509   2.293       .  S
O508       Mg540   2.262       .  S
Mg509       O515   2.142       .  S
Mg509       O523   2.245       .  S
Mg509       O511   2.291       .  S
C510        O548   1.278       .  A
C510        O516   1.272       .  A
O511        C518   1.273       .  A
H512        C525   1.081       .  S
C513        H538   1.081       .  S
C513        O527   1.234       .  S
C513        O528   1.268       .  A
O514        C537   1.269       .  A
O515       Mg529   2.168       .  S
O516       Mg546   2.293       .  S
C517        O530   1.272       .  A
C517        O522   1.274       .  A
C518        O545   1.273       .  A
Mg519       O526   2.155       .  S
Mg519       O527   2.164       .  S
Mg519       O520   2.344       .  S
Mg519       O521   2.300       .  S
Mg519       O548   2.280       .  S
O521        C525   1.270       .  A
O522       Mg529   2.301       .  S
O523        C542   1.271       .  A
O524        C544   1.276       .  A
O524       Mg540   2.306       .  S
O526       Mg540   2.164       .  S
O526        C537   1.234       .  S
O527       Mg546   2.157       .  S
O528       Mg540   2.295       .  S
Mg529       O545   2.264       .  S
O530       Mg546   2.255       .  S
H531        C536   1.081       .  S
O532       Mg540   2.153       .  S
O532        C535   1.234       .  S
H533        C535   1.081       .  S
H534        C537   1.081       .  S
O539       Mg546   2.292       .  S
C542        O547   1.275       .  A
O543        C544   1.273       .  A
C549        C550   1.369       .  D
C549       C1062   1.495       .  S
C549       C1079   1.503       .  S
C550       C1034   1.496       .  S
C550       C1048   1.496       .  S
C551        C552   1.364   1_556  D
C551       C1345   1.498       .  S
C551       C1356   1.497       .  S
C552       C1009   1.493       .  S
C552       C1020   1.493       .  S
C553        C554   1.411       .  A
C553        C558   1.407       .  A
C553       C1695   1.493       .  S
C554        C555   1.414       .  A
C554        H559   1.081       .  S
C555        C556   1.407       .  A
C555       C1051   1.489       .  S
C556        C557   1.390       .  A
C556        H560   1.084       .  S
C557        C558   1.392       .  A
C557        C612   1.469       .  S
C558        H561   1.085       .  S
C562        C563   1.410       .  A
C562        C567   1.407       .  A
C562       C1961   1.486       .  S
C563        C564   1.408       .  A
C563        H568   1.083       .  S
C564        C565   1.404       .  A
C564       C1037   1.482       .  S
C565        C566   1.398       .  A
C565        H569   1.085       .  S
C566        C567   1.399       .  A
C566        C616   1.474       .  S
C567        H570   1.085       .  S
C571        C572   1.411       .  A
C571        C576   1.414       .  A
C571       C2059   1.490       .  S
C572        C573   1.410       .  A
C572        H577   1.079       .  S
C573        C574   1.406       .  A
C573       C1023   1.488       .  S
C574        C575   1.387       .  A
C574        H578   1.085       .  S
C575        C576   1.398       .  A
C575        C648   1.474       .  S
C576        H579   1.085       .  S
C580        C581   1.403       .  A
C580        C585   1.406       .  A
C580       C1678   1.475       .  S
C581        C582   1.402       .  A
C581        H586   1.084       .  S
C582        C583   1.404       .  A
C582       C1006   1.476       .  S
C583        C584   1.402       .  A
C583        H587   1.085       .  S
C584        C585   1.402       .  A
C584        C650   1.475       .  S
C585        H588   1.084       .  S
C589        C590   1.401       .  A
C589        C594   1.405       .  A
C589       C2045   1.471       .  S
C590        C591   1.398       .  A
C590        H595   1.085       .  S
C591        C592   1.398       .  A
C591        C624   1.470       .  S
C592        C593   1.402       .  A
C592        H596   1.085       .  S
C593        C594   1.405       .  A
C593        C992   1.471       .  S
C594        H597   1.083       .  S
C598        C599   1.404       .  A
C598        C603   1.406       .  A
C598       C1972   1.491       .  S
C599        C600   1.400       .  A
C599        H604   1.084       .  S
C600        C601   1.396       .  A
C600        C623   1.473       .  S
C601        C602   1.410       .  A
C601        H605   1.083       .  S
C602        C603   1.412       .  A
C602        C981   1.490       .  S
C603        H606   1.082       .  S
O607       Mg609   2.151       .  S
O607       Mg615   2.143       .  S
O607        C642   1.236       .  S
C608        H647   1.081       .  S
C608        O621   1.235       .  S
C608        O645   1.271       .  A
Mg609       O638   2.144       .  S
Mg609       O653   2.297       .  S
Mg609       O649   2.274       .  S
Mg609       O620   2.302       .  S
O610       Mg652   2.144       .  S
O610       Mg635   2.147       .  S
O610        C631   1.236       .  S
O611        C642   1.273       .  A
O611       Mg635   2.319       .  S
C612        O614   1.269       .  A
C612        O626   1.273       .  A
O613        C641   1.270       .  A
O613       Mg615   2.303       .  S
O614       Mg646   2.245       .  S
Mg615       O621   2.161       .  S
Mg615       O629   2.266       .  S
Mg615       O617   2.277       .  S
C616        O654   1.270       .  A
C616        O622   1.272       .  A
O617        C624   1.269       .  A
H618        C631   1.081       .  S
C619        H644   1.081       .  S
C619        O633   1.236       .  S
C619        O634   1.271       .  A
O620        C643   1.269       .  A
O621       Mg635   2.136       .  S
O622       Mg652   2.301       .  S
C623        O636   1.267       .  A
C623        O628   1.276       .  A
C624        O651   1.270       .  A
Mg625       O632   2.144       .  S
Mg625       O633   2.140       .  S
Mg625       O626   2.289       .  S
Mg625       O627   2.308       .  S
Mg625       O654   2.267       .  S
O627        C631   1.271       .  A
O628       Mg635   2.324       .  S
O629        C648   1.268       .  A
O630        C650   1.273       .  A
O630       Mg646   2.306       .  S
O632       Mg646   2.142       .  S
O632        C643   1.234       .  S
O633       Mg652   2.134       .  S
O634       Mg646   2.303       .  S
Mg635       O651   2.265       .  S
O636       Mg652   2.233       .  S
H637        C642   1.081       .  S
O638       Mg646   2.142       .  S
O638        C641   1.236       .  S
H639        C641   1.081       .  S
H640        C643   1.081       .  S
O645       Mg652   2.312       .  S
C648        O653   1.274       .  A
O649        C650   1.272       .  A
C655        C656   1.367       .  D
C655        C978   1.497       .  S
C655        C995   1.495   1_565  S
C656        C950   1.502       .  S
C656        C964   1.511       .  S
C657        C658   1.398       .  A
C657        C662   1.405       .  A
C657        C953   1.468       .  S
C658        C659   1.397       .  A
C658        H663   1.084       .  S
C659        C660   1.403       .  A
C659       C1905   1.472       .  S
C660        C661   1.405       .  A
C660        H664   1.084       .  S
C661        C662   1.403       .  A
C661        C727   1.484       .  S
C662        H665   1.081       .  S
C666        C667   1.418       .  A
C666        C671   1.410       .  A
C666        C967   1.510       .  S
C667        C668   1.415       .  A
C667        H672   1.081       .  S
C668        C669   1.405       .  A
C668       C1723   1.492       .  S
C669        C670   1.397       .  A
C669        H673   1.083       .  S
C670        C671   1.390       .  A
C670        C728   1.479       .  S
C671        H674   1.080       .  S
C675        C676   1.405       .  A
C675        C680   1.407       .  A
C675       C1919   1.487       .  S
C676        C677   1.403       .  A
C676        H681   1.082       .  S
C677        C678   1.405       .  A
C677        C936   1.477       .  S
C678        C679   1.397       .  A
C678        H682   1.084       .  S
C679        C680   1.404       .  A
C679        C720   1.479       .  S
C680        H683   1.083       .  S
C684        C685   1.409       .  A
C684        C689   1.409       .  A
C684        C922   1.492       .  S
C685        C686   1.409       .  A
C685        H690   1.083       .  S
C686        C687   1.402       .  A
C686       C1653   1.478       .  S
C687        C688   1.396       .  A
C687        H691   1.085       .  S
C688        C689   1.406       .  A
C688        C716   1.482       .  S
C689        H692   1.084       .  S
C693        C694   1.406       .  A
C693        C698   1.409       .  A
C693       C1429   1.489       .  S
C694        C695   1.399       .  A
C694        H699   1.084       .  S
C695        C696   1.402       .  A
C695        C752   1.482       .  S
C696        C697   1.405       .  A
C696        H700   1.084       .  S
C697        C698   1.409       .  A
C697       C1706   1.481       .  S
C698        H701   1.083       .  S
C702        C703   1.408       .  A
C702        C707   1.401       .  A
C702       C1443   1.479       .  S
C703        C704   1.411       .  A
C703        H708   1.083       .  S
C704        C705   1.407       .  A
C704       C1667   1.488       .  S
C705        C706   1.403       .  A
C705        H709   1.084       .  S
C706        C707   1.399       .  A
C706        C754   1.481       .  S
C707        H710   1.085       .  S
O711       Mg713   2.146       .  S
O711       Mg719   2.156       .  S
O711        C746   1.235       .  S
C712        H751   1.081       .  S
C712        O725   1.233       .  S
C712        O749   1.267       .  A
Mg713       O742   2.164       .  S
Mg713       O757   2.309       .  S
Mg713       O753   2.253       .  S
Mg713       O724   2.299       .  S
O714       Mg756   2.165       .  S
O714       Mg739   2.144       .  S
O714        C735   1.235       .  S
O715        C746   1.269       .  A
O715       Mg739   2.300       .  S
C716        O718   1.275       .  A
C716        O730   1.272       .  A
O717        C745   1.270       .  A
O717       Mg719   2.302       .  S
O718       Mg750   2.276       .  S
Mg719       O725   2.138       .  S
Mg719       O733   2.240       .  S
Mg719       O721   2.283       .  S
C720        O758   1.272       .  A
C720        O726   1.272       .  A
O721        C728   1.271       .  A
H722        C735   1.081       .  S
C723        H748   1.081       .  S
C723        O737   1.233       .  S
C723        O738   1.267       .  A
O724        C747   1.269       .  A
O725       Mg739   2.164       .  S
O726       Mg756   2.282       .  S
C727        O740   1.270       .  A
C727        O732   1.280       .  A
C728        O755   1.276       .  A
Mg729       O736   2.149       .  S
Mg729       O737   2.157       .  S
Mg729       O730   2.283       .  S
Mg729       O731   2.291       .  S
Mg729       O758   2.260       .  S
O731        C735   1.268       .  A
O732       Mg739   2.336       .  S
O733        C752   1.268       .  A
O734        C754   1.275       .  A
O734       Mg750   2.302       .  S
O736       Mg750   2.167       .  S
O736        C747   1.234       .  S
O737       Mg756   2.136       .  S
O738       Mg750   2.291       .  S
Mg739       O755   2.273       .  S
O740       Mg756   2.233       .  S
H741        C746   1.081       .  S
O742       Mg750   2.159       .  S
O742        C745   1.235       .  S
H743        C745   1.081       .  S
H744        C747   1.081       .  S
O749       Mg756   2.285       .  S
C752        O757   1.276       .  A
O753        C754   1.272       .  A
C759        C760   1.366       .  D
C759        C894   1.504       .  S
C759        C911   1.496       .  S
C760        C925   1.503       .  S
C760        C939   1.487       .  S
C761        C762   1.406       .  A
C761        C766   1.411       .  A
C761       C2031   1.486       .  S
C762        C763   1.405       .  A
C762        H767   1.084       .  S
C763        C764   1.404       .  A
C763       C1107   1.479       .  S
C764        C765   1.400       .  A
C764        H768   1.085       .  S
C765        C766   1.406       .  A
C765        C831   1.484       .  S
C766        H769   1.082       .  S
C770        C771   1.407       .  A
C770        C775   1.407       .  A
C770       C1737   1.479       .  S
C771        C772   1.402       .  A
C771        H776   1.084       .  S
C772        C773   1.399       .  A
C772        C832   1.475       .  S
C773        C774   1.406       .  A
C773        H777   1.085       .  S
C774        C775   1.404       .  A
C774       C1093   1.487       .  S
C775        H778   1.082       .  S
C779        C780   1.403       .  A
C779        C784   1.403       .  A
C779        C880   1.478       .  S
C780        C781   1.406       .  A
C780        H785   1.084       .  S
C781        C782   1.403       .  A
C781       C2101   1.473       .  S
C782        C783   1.400       .  A
C782        H786   1.084       .  S
C783        C784   1.398       .  A
C783        C858   1.470       .  S
C784        H787   1.085       .  S
C788        C789   1.405       .  A
C788        C793   1.408       .  A
C788       C2112   1.486       .  S
C789        C790   1.405       .  A
C789        H794   1.083       .  S
C790        C791   1.405       .  A
C790        C908   1.473       .  S
C791        C792   1.399       .  A
C791        H795   1.085       .  S
C792        C793   1.400       .  A
C792        C820   1.477       .  S
C793        H796   1.085       .  S
C797        C798   1.422       .  A
C797        C802   1.413       .  A
C797       C2017   1.512       .  S
C798        C799   1.416       .  A
C798        H803   1.081       .  S
C799        C800   1.406       .  A
C799        C897   1.492       .  S
C800        C801   1.390       .  A
C800        H804   1.084       .  S
C801        C802   1.386       .  A
C801        C824   1.469       .  S
C802        H805   1.081       .  S
C806        C807   1.407       .  A
C806        C811   1.406       .  A
C806        C866   1.483       .  S
C807        C808   1.407       .  A
C807        H812   1.083       .  S
C808        C809   1.409       .  A
C808       C1751   1.490       .  S
C809        C810   1.401       .  A
C809        H813   1.085       .  S
C810        C811   1.401       .  A
C810        C856   1.480       .  S
C811        H814   1.084       .  S
O815       Mg817   2.140       .  S
O815       Mg823   2.137       .  S
O815        C850   1.236       .  S
C816        H855   1.081       .  S
C816        O829   1.236       .  S
C816        O853   1.272       .  A
Mg817       O846   2.149       .  S
Mg817       O861   2.305       .  S
Mg817       O857   2.254       .  S
Mg817       O828   2.301       .  S
O818       Mg860   2.145       .  S
O818       Mg843   2.158       .  S
O818        C839   1.237       .  S
O819        C850   1.271       .  A
O819       Mg843   2.304       .  S
C820        O822   1.270       .  A
C820        O834   1.273       .  A
O821        C849   1.271       .  A
O821       Mg823   2.304       .  S
O822       Mg854   2.266       .  S
Mg823       O829   2.162       .  S
Mg823       O837   2.276       .  S
Mg823       O825   2.310       .  S
C824        O862   1.266       .  A
C824        O830   1.277       .  A
O825        C832   1.274       .  A
H826        C839   1.081       .  S
C827        H852   1.081       .  S
C827        O841   1.237       .  S
C827        O842   1.273       .  A
O828        C851   1.270       .  A
O829       Mg843   2.146       .  S
O830       Mg860   2.318       .  S
C831        O844   1.273       .  A
C831        O836   1.276       .  A
C832        O859   1.272       .  A
Mg833       O840   2.136       .  S
Mg833       O841   2.142       .  S
Mg833       O834   2.307       .  S
Mg833       O835   2.315       .  S
Mg833       O862   2.244       .  S
O835        C839   1.273       .  A
O836       Mg843   2.315       .  S
O837        C856   1.273       .  A
O838        C858   1.273       .  A
O838       Mg854   2.301       .  S
O840       Mg854   2.136       .  S
O840        C851   1.236       .  S
O841       Mg860   2.158       .  S
O842       Mg854   2.314       .  S
Mg843       O859   2.273       .  S
O844       Mg860   2.293       .  S
H845        C850   1.081       .  S
O846       Mg854   2.146       .  S
O846        C849   1.237       .  S
H847        C849   1.081       .  S
H848        C851   1.081       .  S
O853       Mg860   2.313       .  S
C856        O861   1.274       .  A
O857        C858   1.270       .  A
C863        C864   1.365   1_556  D
C863       C1289   1.505       .  S
C863       C1303   1.493       .  S
C864        C869   1.500       .  S
C864        C883   1.485       .  S
C865        C866   1.403       .  A
C865        C870   1.407       .  A
C865        H872   1.083       .  S
C866        C867   1.413       .  A
C867        C868   1.401       .  A
C867        N874   1.441       .  S
C868        C869   1.403       .  A
C868        H873   1.074       .  S
C869        C870   1.415       .  A
C870        N871   1.437       .  S
N871        O875   1.263       .  A
N871        O876   1.262       .  A
N874        O877   1.263       .  A
N874        O878   1.263       .  A
C879        C880   1.403       .  A
C879        C884   1.409       .  A
C879        H886   1.083       .  S
C880        C881   1.413       .  A
C881        C882   1.397       .  A
C881        N888   1.442       .  S
C882        C883   1.403       .  A
C882        H887   1.083       .  S
C883        C884   1.415       .  A
C884        N885   1.438       .  S
N885        O889   1.263       .  A
N885        O890   1.261       .  A
N888        O891   1.263       .  A
N888        O892   1.263       .  A
C893        C894   1.404   1_455  A
C893        C898   1.401       .  A
C893        H900   1.080       .  S
C894        C895   1.421       .  A
C895        C896   1.412   1_655  A
C895        N902   1.436       .  S
C896        C897   1.403       .  A
C896        H901   1.084       .  S
C897        C898   1.415       .  A
C898        N899   1.443       .  S
N899        O903   1.263       .  A
N899        O904   1.263       .  A
N902        O905   1.260       .  A
N902        O906   1.263       .  A
C907        C908   1.400       .  A
C907        C912   1.402   1_455  A
C907        H914   1.084       .  S
C908        C909   1.414       .  A
C909        C910   1.402       .  A
C909        N916   1.443       .  S
C910        C911   1.407   1_455  A
C910        H915   1.082       .  S
C911        C912   1.417       .  A
C912        N913   1.433       .  S
N913        O917   1.263       .  A
N913        O918   1.261       .  A
N916        O919   1.262       .  A
N916        O920   1.263       .  A
C921        C922   1.403       .  A
C921        C926   1.410       .  A
C921        H928   1.083       .  S
C922        C923   1.415       .  A
C923        C924   1.403       .  A
C923        N930   1.441       .  S
C924        C925   1.403       .  A
C924        H929   1.078       .  S
C925        C926   1.417       .  A
C926        N927   1.433       .  S
N927        O931   1.263       .  A
N927        O932   1.261       .  A
N930        O933   1.263       .  A
N930        O934   1.263       .  A
C935        C936   1.400       .  A
C935        C940   1.397       .  A
C935        H942   1.084       .  S
C936        C937   1.409       .  A
C937        C938   1.399       .  A
C937        N944   1.430       .  S
C938        C939   1.404       .  A
C938        H943   1.082       .  S
C939        C940   1.414       .  A
C940        N941   1.429       .  S
N941        O945   1.262       .  A
N941        O946   1.260       .  A
N944        O947   1.262       .  A
N944        O948   1.262       .  A
C949        C950   1.410       .  A
C949        C954   1.406       .  A
C949        H956   1.079       .  S
C950        C951   1.415       .  A
C951        C952   1.396       .  A
C951        N958   1.436       .  S
C952        C953   1.396       .  A
C952        H957   1.084       .  S
C953        C954   1.413       .  A
C954        N955   1.444       .  S
N955        O959   1.263       .  A
N955        O960   1.262       .  A
N958        O961   1.263       .  A
N958        O962   1.261       .  A
C963        C964   1.401       .  A
C963        C968   1.384       .  A
C963        H970   1.080       .  S
C964        C965   1.424       .  A
C965        C966   1.421       .  A
C965        N972   1.438       .  S
C966        C967   1.414       .  A
C966        H971   1.081       .  S
C967        C968   1.418       .  A
C968        N969   1.437       .  S
N969        O973   1.263       .  A
N969        O974   1.263       .  A
N972        O975   1.263       .  A
N972        O976   1.260       .  A
C977        C978   1.405   1_545  A
C977        C982   1.401       .  A
C977        H984   1.084   1_545  S
C978        C979   1.418   1_565  A
C979        C980   1.405       .  A
C979        N986   1.439       .  S
C980        C981   1.404       .  A
C980        H985   1.081       .  S
C981        C982   1.415       .  A
C982        N983   1.442       .  S
N983        O987   1.263       .  A
N983        O988   1.263       .  A
N986        O989   1.259   1_545  A
N986        O990   1.263       .  A
C991        C992   1.392       .  A
C991        C996   1.389       .  A
C991        H998   1.085       .  S
C992        C993   1.418       .  A
C993        C994   1.414       .  A
C993       N1000   1.444       .  S
C994        C995   1.409       .  A
C994        H999   1.082   1_545  S
C995        C996   1.413       .  A
C996        N997   1.428       .  S
N997       O1001   1.263       .  A
N997       O1002   1.261       .  A
N1000      O1003   1.262       .  A
N1000      O1004   1.263       .  A
C1005      C1006   1.402       .  A
C1005      C1010   1.410       .  A
C1005      H1012   1.083       .  S
C1006      C1007   1.409       .  A
C1007      C1008   1.401       .  A
C1007      N1014   1.442       .  S
C1008      C1009   1.406       .  A
C1008      H1013   1.082       .  S
C1009      C1010   1.421       .  A
C1010      N1011   1.446       .  S
N1011      O1015   1.263       .  A
N1011      O1016   1.259       .  A
N1014      O1017   1.262       .  A
N1014      O1018   1.263       .  A
C1019      C1020   1.409       .  A
C1019      C1024   1.407       .  A
C1019      H1026   1.083       .  S
C1020      C1021   1.413       .  A
C1021      C1022   1.389       .  A
C1021      N1028   1.430       .  S
C1022      C1023   1.402       .  A
C1022      H1027   1.085       .  S
C1023      C1024   1.411       .  A
C1024      N1025   1.428       .  S
N1025      O1029   1.262       .  A
N1025      O1030   1.262       .  A
N1028      O1031   1.261       .  A
N1028      O1032   1.262       .  A
C1033      C1034   1.403       .  A
C1033      C1038   1.402       .  A
C1033      H1040   1.078       .  S
C1034      C1035   1.415       .  A
C1035      C1036   1.409       .  A
C1035      N1042   1.433       .  S
C1036      C1037   1.401       .  A
C1036      H1041   1.084       .  S
C1037      C1038   1.414       .  A
C1038      N1039   1.443       .  S
N1039      O1043   1.263       .  A
N1039      O1044   1.263       .  A
N1042      O1045   1.263       .  A
N1042      O1046   1.261       .  A
C1047      C1048   1.407       .  A
C1047      C1052   1.401       .  A
C1047      H1054   1.079       .  S
C1048      C1049   1.416       .  A
C1049      C1050   1.397       .  A
C1049      N1056   1.434       .  S
C1050      C1051   1.404       .  A
C1050      H1055   1.084       .  S
C1051      C1052   1.409       .  A
C1052      N1053   1.428       .  S
N1053      O1057   1.262       .  A
N1053      O1058   1.262       .  A
N1056      O1059   1.263       .  A
N1056      O1060   1.258       .  A
C1061      C1062   1.402       .  A
C1061      C1066   1.397   1_655  A
C1061      H1068   1.077       .  S
C1062      C1063   1.424       .  A
C1063      C1064   1.408   1_655  A
C1063      N1070   1.444       .  S
C1064      C1065   1.405       .  A
C1064      H1069   1.083       .  S
C1065      C1066   1.411       .  A
C1066      N1067   1.442       .  S
N1067      O1071   1.263       .  A
N1067      O1072   1.263       .  A
N1070      O1073   1.259       .  A
N1070      O1074   1.263       .  A
C1075      C1076   1.400       .  A
C1075      C1080   1.405   1_455  A
C1075      H1082   1.084       .  S
C1076      C1077   1.406       .  A
C1077      C1078   1.398       .  A
C1077      N1084   1.442       .  S
C1078      C1079   1.410   1_455  A
C1078      H1083   1.076       .  S
C1079      C1080   1.419       .  A
C1080      N1081   1.430       .  S
N1081      O1085   1.263       .  A
N1081      O1086   1.260       .  A
N1084      O1087   1.263       .  A
N1084      O1088   1.263       .  A
C1089      C1090   1.408       .  A
C1089      C1094   1.404       .  A
C1089      H1096   1.078       .  S
C1090      C1091   1.419       .  A
C1091      C1092   1.400       .  A
C1091      N1098   1.436       .  S
C1092      C1093   1.401       .  A
C1092      H1097   1.084       .  S
C1093      C1094   1.408       .  A
C1094      N1095   1.430       .  S
N1095      O1099   1.262       .  A
N1095      O1100   1.262       .  A
N1098      O1101   1.259       .  A
N1098      O1102   1.263       .  A
C1103      C1104   1.403       .  A
C1103      C1108   1.401       .  A
C1103      H1110   1.074       .  S
C1104      C1105   1.419       .  A
C1105      C1106   1.408       .  A
C1105      N1112   1.438       .  S
C1106      C1107   1.401       .  A
C1106      H1111   1.084       .  S
C1107      C1108   1.411       .  A
C1108      N1109   1.442       .  S
N1109      O1113   1.263       .  A
N1109      O1114   1.263       .  A
N1112      O1115   1.261       .  A
N1112      O1116   1.263       .  A
C1117      C1118   1.409       .  A
C1117      C1122   1.404       .  A
C1117      H1124   1.080       .  S
C1118      C1119   1.421       .  A
C1119      C1120   1.401       .  A
C1119      N1126   1.434   1_545  S
C1120      C1121   1.398       .  A
C1120      H1125   1.084       .  S
C1121      C1122   1.414       .  A
C1122      N1123   1.445       .  S
N1123      O1127   1.263       .  A
N1123      O1128   1.262       .  A
N1126      O1129   1.258       .  A
N1126      O1130   1.263       .  A
C1131      C1132   1.412       .  A
C1131      C1136   1.408       .  A
C1131      H1138   1.081   1_545  S
C1132      C1133   1.415       .  A
C1133      C1134   1.397       .  A
C1133      N1140   1.426       .  S
C1134      C1135   1.399       .  A
C1134      H1139   1.084       .  S
C1135      C1136   1.408       .  A
C1136      N1137   1.428       .  S
N1137      O1141   1.262       .  A
N1137      O1142   1.262       .  A
N1140      O1143   1.263       .  A
N1140      O1144   1.261       .  A
C1145      C1146   1.403       .  A
C1145      C1150   1.394       .  A
C1145      H1152   1.080       .  S
C1146      C1147   1.422       .  A
C1147      C1148   1.413       .  A
C1147      N1154   1.441       .  S
C1148      C1149   1.407       .  A
C1148      H1153   1.082       .  S
C1149      C1150   1.413       .  A
C1150      N1151   1.442       .  S
N1151      O1155   1.263       .  A
N1151      O1156   1.263       .  A
N1154      O1157   1.259       .  A
N1154      O1158   1.263       .  A
C1159      C1160   1.394       .  A
C1159      C1164   1.395       .  A
C1159      H1166   1.085       .  S
C1160      C1161   1.420       .  A
C1161      C1162   1.414       .  A
C1161      N1168   1.445       .  S
C1162      C1163   1.408       .  A
C1162      H1167   1.081       .  S
C1163      C1164   1.417       .  A
C1164      N1165   1.428       .  S
N1165      O1169   1.261       .  A
N1165      O1170   1.262       .  A
N1168      O1171   1.262       .  A
N1168      O1172   1.263       .  A
C1173      C1174   1.400       .  A
C1173      C1178   1.405   1_455  A
C1173      H1180   1.084       .  S
C1174      C1175   1.409       .  A
C1175      C1176   1.399       .  A
C1175      N1182   1.436       .  S
C1176      C1177   1.404   1_455  A
C1176      H1181   1.080   1_455  S
C1177      C1178   1.428       .  A
C1178      N1179   1.448       .  S
N1179      O1183   1.263       .  A
N1179      O1184   1.259       .  A
N1182      O1185   1.263       .  A
N1182      O1186   1.261       .  A
C1187      C1188   1.399       .  A
C1187      C1192   1.404   1_455  A
C1187      H1194   1.084       .  S
C1188      C1189   1.413       .  A
C1189      C1190   1.400       .  A
C1189      N1196   1.441       .  S
C1190      C1191   1.407   1_455  A
C1190      H1195   1.072       .  S
C1191      C1192   1.421       .  A
C1192      N1193   1.426       .  S
N1193      O1197   1.260       .  A
N1193      O1198   1.263       .  A
N1196      O1199   1.263       .  A
N1196      O1200   1.263       .  A
C1201      C1202   1.406       .  A
C1201      C1206   1.407       .  A
C1201      H1208   1.077       .  S
C1202      C1203   1.419       .  A
C1203      C1204   1.409       .  A
C1203      N1210   1.435       .  S
C1204      C1205   1.400       .  A
C1204      H1209   1.084       .  S
C1205      C1206   1.414       .  A
C1206      N1207   1.442       .  S
N1207      O1211   1.263       .  A
N1207      O1212   1.263       .  A
N1210      O1213   1.263       .  A
N1210      O1214   1.259       .  A
C1215      C1216   1.402       .  A
C1215      C1220   1.405       .  A
C1215      H1222   1.084       .  S
C1216      C1217   1.408       .  A
C1217      C1218   1.399       .  A
C1217      N1224   1.432       .  S
C1218      C1219   1.405       .  A
C1218      H1223   1.080       .  S
C1219      C1220   1.424       .  A
C1220      N1221   1.444       .  S
N1221      O1225   1.263       .  A
N1221      O1226   1.258       .  A
N1224      O1227   1.262       .  A
N1224      O1228   1.262       .  A
C1229      C1230   1.410       .  A
C1229      C1234   1.415       .  A
C1229      H1236   1.081   1_545  S
C1230      C1231   1.415       .  A
C1231      C1232   1.393       .  A
C1231      N1238   1.427       .  S
C1232      C1233   1.399       .  A
C1232      H1237   1.085       .  S
C1233      C1234   1.418       .  A
C1234      N1235   1.438       .  S
N1235      O1239   1.263       .  A
N1235      O1240   1.262       .  A
N1238      O1241   1.261       .  A
N1238      O1242   1.263       .  A
C1243      C1244   1.408       .  A
C1243      C1248   1.399       .  A
C1243      H1250   1.082       .  S
C1244      C1245   1.420       .  A
C1245      C1246   1.403       .  A
C1245      N1252   1.433   1_545  S
C1246      C1247   1.399       .  A
C1246      H1251   1.084       .  S
C1247      C1248   1.410       .  A
C1248      N1249   1.442       .  S
N1249      O1253   1.263       .  A
N1249      O1254   1.262       .  A
N1252      O1255   1.260       .  A
N1252      O1256   1.263       .  A
C1257      C1258   1.405       .  A
C1257      C1262   1.413       .  A
C1257      H1264   1.083       .  S
C1258      C1259   1.412       .  A
C1259      C1260   1.397       .  A
C1259      N1266   1.442       .  S
C1260      C1261   1.401       .  A
C1260      H1265   1.076       .  S
C1261      C1262   1.419       .  A
C1262      N1263   1.440       .  S
N1263      O1267   1.263       .  A
N1263      O1268   1.262       .  A
N1266      O1269   1.263       .  A
N1266      O1270   1.263       .  A
C1271      C1272   1.402       .  A
C1271      C1276   1.401       .  A
C1271      H1278   1.084       .  S
C1272      C1273   1.414       .  A
C1273      C1274   1.409       .  A
C1273      N1280   1.441       .  S
C1274      C1275   1.407       .  A
C1274      H1279   1.081       .  S
C1275      C1276   1.415       .  A
C1276      N1277   1.437       .  S
N1277      O1281   1.263       .  A
N1277      O1282   1.260       .  A
N1280      O1283   1.262       .  A
N1280      O1284   1.263       .  A
C1285      C1286   1.400       .  A
C1285      C1290   1.403       .  A
C1285      H1292   1.084       .  S
C1286      C1287   1.409       .  A
C1287      C1288   1.402       .  A
C1287      N1294   1.442       .  S
C1288      C1289   1.410       .  A
C1288      H1293   1.081       .  S
C1289      C1290   1.417       .  A
C1290      N1291   1.426       .  S
N1291      O1295   1.261       .  A
N1291      O1296   1.262   1_556  A
N1294      O1297   1.263       .  A
N1294      O1298   1.263       .  A
C1299      C1300   1.406       .  A
C1299      C1304   1.396       .  A
C1299      H1306   1.083       .  S
C1300      C1301   1.418       .  A
C1301      C1302   1.405       .  A
C1301      N1308   1.434       .  S
C1302      C1303   1.404       .  A
C1302      H1307   1.081       .  S
C1303      C1304   1.411       .  A
C1304      N1305   1.437       .  S
N1305      O1309   1.263       .  A
N1305      O1310   1.260       .  A
N1308      O1311   1.262       .  A
N1308      O1312   1.263       .  A
C1313      C1314   1.401       .  A
C1313      C1318   1.397       .  A
C1313      H1320   1.085       .  S
C1314      C1315   1.411       .  A
C1315      C1316   1.403       .  A
C1315      N1322   1.439       .  S
C1316      C1317   1.405       .  A
C1316      H1321   1.078       .  S
C1317      C1318   1.410       .  A
C1318      N1319   1.427       .  S
N1319      O1323   1.262       .  A
N1319      O1324   1.262       .  A
N1322      O1325   1.262       .  A
N1322      O1326   1.262       .  A
C1327      C1328   1.399       .  A
C1327      C1332   1.405       .  A
C1327      H1334   1.085       .  S
C1328      C1329   1.410       .  A
C1329      C1330   1.400       .  A
C1329      N1336   1.443       .  S
C1330      C1331   1.402       .  A
C1330      H1335   1.076       .  S
C1331      C1332   1.418       .  A
C1332      N1333   1.432       .  S
N1333      O1337   1.263       .  A
N1333      O1338   1.260       .  A
N1336      O1339   1.263       .  A
N1336      O1340   1.263       .  A
C1341      C1342   1.399       .  A
C1341      C1346   1.401       .  A
C1341      H1348   1.084       .  S
C1342      C1343   1.409       .  A
C1343      C1344   1.400       .  A
C1343      N1350   1.443       .  S
C1344      C1345   1.408       .  A
C1344      H1349   1.082       .  S
C1345      C1346   1.417       .  A
C1346      N1347   1.432       .  S
N1347      O1351   1.263       .  A
N1347      O1352   1.260       .  A
N1350      O1353   1.262       .  A
N1350      O1354   1.263       .  A
C1355      C1356   1.408       .  A
C1355      C1360   1.410       .  A
C1355      H1362   1.083       .  S
C1356      C1357   1.413       .  A
C1357      C1358   1.391       .  A
C1357      N1364   1.429       .  S
C1358      C1359   1.401       .  A
C1358      H1363   1.085       .  S
C1359      C1360   1.412       .  A
C1360      N1361   1.429       .  S
N1361      O1365   1.262       .  A
N1361      O1366   1.262       .  A
N1364      O1367   1.262       .  A
N1364      O1368   1.262       .  A
C1369      C1370   1.411       .  A
C1369      C1374   1.417   1_655  A
C1369      H1376   1.079       .  S
C1370      C1371   1.408   1_655  A
C1371      C1372   1.380       .  A
C1371      N1378   1.432       .  S
C1372      C1373   1.406       .  A
C1372      H1377   1.080       .  S
C1373      C1374   1.422       .  A
C1374      N1375   1.436       .  S
N1375      O1379   1.262       .  A
N1375      O1380   1.263   1_455  A
N1378      O1381   1.260       .  A
N1378      O1382   1.262       .  A
C1383      C1384   1.410   1_455  A
C1383      C1388   1.407       .  A
C1383      H1390   1.084   1_455  S
C1384      C1385   1.422       .  A
C1385      C1386   1.405   1_655  A
C1385      N1392   1.427       .  S
C1386      C1387   1.400       .  A
C1386      H1391   1.084       .  S
C1387      C1388   1.411       .  A
C1388      N1389   1.442       .  S
N1389      O1393   1.263       .  A
N1389      O1394   1.263       .  A
N1392      O1395   1.262       .  A
N1392      O1396   1.262       .  A
C1397      C1398   1.402   1_545  A
C1397      C1402   1.408       .  A
C1397      H1404   1.082   1_545  S
C1398      C1399   1.410   1_565  A
C1399      C1400   1.391       .  A
C1399      N1406   1.428       .  S
C1400      C1401   1.402       .  A
C1400      H1405   1.084       .  S
C1401      C1402   1.419       .  A
C1402      N1403   1.434       .  S
N1403      O1407   1.262       .  A
N1403      O1408   1.262       .  A
N1406      O1409   1.262   1_545  A
N1406      O1410   1.262       .  A
C1411      C1412   1.404       .  A
C1411      C1416   1.409       .  A
C1411      H1418   1.079   1_545  S
C1412      C1413   1.418       .  A
C1413      C1414   1.396       .  A
C1413      N1420   1.431       .  S
C1414      C1415   1.393       .  A
C1414      H1419   1.085       .  S
C1415      C1416   1.418       .  A
C1416      N1417   1.444       .  S
N1417      O1421   1.263       .  A
N1417      O1422   1.262       .  A
N1420      O1423   1.260       .  A
N1420      O1424   1.263       .  A
C1425      C1426   1.411       .  A
C1425      C1430   1.413       .  A
C1425      H1432   1.079       .  S
C1426      C1427   1.412       .  A
C1427      C1428   1.396       .  A
C1427      N1434   1.431       .  S
C1428      C1429   1.402       .  A
C1428      H1433   1.085       .  S
C1429      C1430   1.415       .  A
C1430      N1431   1.439       .  S
N1431      O1435   1.263       .  A
N1431      O1436   1.262       .  A
N1434      O1437   1.259       .  A
N1434      O1438   1.263       .  A
C1439      C1440   1.414       .  A
C1439      C1444   1.410       .  A
C1439      H1446   1.081       .  S
C1440      C1441   1.423       .  A
C1441      C1442   1.400       .  A
C1441      N1448   1.423       .  S
C1442      C1443   1.394       .  A
C1442      H1447   1.085       .  S
C1443      C1444   1.411       .  A
C1444      N1445   1.442       .  S
N1445      O1449   1.263       .  A
N1445      O1450   1.262       .  A
N1448      O1451   1.261       .  A
N1448      O1452   1.263       .  A
C1453      C1454   1.402       .  A
C1453      C1458   1.391       .  A
C1453      H1460   1.084       .  S
C1454      C1455   1.416       .  A
C1455      C1456   1.406       .  A
C1455      N1462   1.427       .  S
C1456      C1457   1.403       .  A
C1456      H1461   1.082       .  S
C1457      C1458   1.411       .  A
C1458      N1459   1.429       .  S
N1459      O1463   1.262       .  A
N1459      O1464   1.261       .  A
N1462      O1465   1.262       .  A
N1462      O1466   1.262       .  A
C1467      C1468   1.394       .  A
C1467      C1472   1.396       .  A
C1467      H1474   1.084       .  S
C1468      C1469   1.418       .  A
C1469      C1470   1.410       .  A
C1469      N1476   1.444       .  S
C1470      C1471   1.404       .  A
C1470      H1475   1.080       .  S
C1471      C1472   1.415       .  A
C1472      N1473   1.433       .  S
N1473      O1477   1.263       .  A
N1473      O1478   1.259       .  A
N1476      O1479   1.262       .  A
N1476      O1480   1.263       .  A
C1481      C1482   1.399       .  A
C1481      C1486   1.394       .  A
C1481      H1488   1.085       .  S
C1482      C1483   1.413       .  A
C1483      C1484   1.403       .  A
C1483      N1490   1.433       .  S
C1484      C1485   1.404       .  A
C1484      H1489   1.083       .  S
C1485      C1486   1.417       .  A
C1486      N1487   1.438       .  S
N1487      O1491   1.263       .  A
N1487      O1492   1.258       .  A
N1490      O1493   1.261       .  A
N1490      O1494   1.262       .  A
C1495      C1496   1.406       .  A
C1495      C1500   1.409       .  A
C1495      H1502   1.084       .  S
C1496      C1497   1.414       .  A
C1497      C1498   1.408       .  A
C1497      N1504   1.439       .  S
C1498      C1499   1.408       .  A
C1498      H1503   1.083       .  S
C1499      C1500   1.414       .  A
C1500      N1501   1.437       .  S
N1501      O1505   1.263       .  A
N1501      O1506   1.262       .  A
N1504      O1507   1.262       .  A
N1504      O1508   1.263       .  A
C1509      C1510   1.399       .  A
C1509      C1514   1.401       .  A
C1509      H1516   1.084       .  S
C1510      C1511   1.414       .  A
C1511      C1512   1.408       .  A
C1511      N1518   1.443       .  S
C1512      C1513   1.408       .  A
C1512      H1517   1.083       .  S
C1513      C1514   1.423       .  A
C1514      N1515   1.446       .  S
N1515      O1519   1.263       .  A
N1515      O1520   1.257       .  A
N1518      O1521   1.261       .  A
N1518      O1522   1.263       .  A
C1523      C1524   1.399       .  A
C1523      C1528   1.400       .  A
C1523      H1530   1.085       .  S
C1524      C1525   1.415       .  A
C1525      C1526   1.413       .  A
C1525      N1532   1.440       .  S
C1526      C1527   1.412       .  A
C1526      H1531   1.081       .  S
C1527      C1528   1.416       .  A
C1528      N1529   1.426       .  S
N1529      O1533   1.263       .  A
N1529      O1534   1.261       .  A
N1532      O1535   1.262       .  A
N1532      O1536   1.263       .  A
C1537      C1538   1.400       .  A
C1537      C1542   1.393       .  A
C1537      H1544   1.084       .  S
C1538      C1539   1.422       .  A
C1539      C1540   1.411       .  A
C1539      N1546   1.443       .  S
C1540      C1541   1.404       .  A
C1540      H1545   1.083       .  S
C1541      C1542   1.414       .  A
C1542      N1543   1.441       .  S
N1543      O1547   1.263       .  A
N1543      O1548   1.263       .  A
N1546      O1549   1.259       .  A
N1546      O1550   1.263       .  A
C1551      C1552   1.406       .  A
C1551      C1556   1.408       .  A
C1551      H1558   1.071       .  S
C1552      C1553   1.416       .  A
C1553      C1554   1.403       .  A
C1553      N1560   1.430       .  S
C1554      C1555   1.400       .  A
C1554      H1559   1.084       .  S
C1555      C1556   1.413       .  A
C1556      N1557   1.443       .  S
N1557      O1561   1.263       .  A
N1557      O1562   1.263       .  A
N1560      O1563   1.261       .  A
N1560      O1564   1.262       .  A
C1565      C1566   1.408       .  A
C1565      C1570   1.408       .  A
C1565      H1572   1.083       .  S
C1566      C1567   1.413       .  A
C1567      C1568   1.395       .  A
C1567      N1574   1.440       .  S
C1568      C1569   1.403       .  A
C1568      H1573   1.084       .  S
C1569      C1570   1.413       .  A
C1570      N1571   1.440       .  S
N1571      O1575   1.263       .  A
N1571      O1576   1.262       .  A
N1574      O1577   1.260       .  A
N1574      O1578   1.263       .  A
C1579      C1580   1.410       .  A
C1579      C1584   1.404       .  A
C1579      H1586   1.081       .  S
C1580      C1581   1.421       .  A
C1581      C1582   1.406       .  A
C1581      N1588   1.431       .  S
C1582      C1583   1.400       .  A
C1582      H1587   1.084       .  S
C1583      C1584   1.412       .  A
C1584      N1585   1.439       .  S
N1585      O1589   1.263       .  A
N1585      O1590   1.261       .  A
N1588      O1591   1.259       .  A
N1588      O1592   1.263       .  A
C1593      C1594   1.414       .  A
C1593      C1598   1.407       .  A
C1593      H1600   1.074       .  S
C1594      C1595   1.422       .  A
C1595      C1596   1.404       .  A
C1595      N1602   1.422       .  S
C1596      C1597   1.396       .  A
C1596      H1601   1.085       .  S
C1597      C1598   1.408       .  A
C1598      N1599   1.443       .  S
N1599      O1603   1.263       .  A
N1599      O1604   1.262       .  A
N1602      O1605   1.262       .  A
N1602      O1606   1.262       .  A
C1607      C1608   1.399       .  A
C1607      C1612   1.396       .  A
C1607      H1614   1.083       .  S
C1608      C1609   1.423       .  A
C1609      C1610   1.410       .  A
C1609      N1616   1.443       .  S
C1610      C1611   1.404       .  A
C1610      H1615   1.083       .  S
C1611      C1612   1.415       .  A
C1612      N1613   1.442       .  S
N1613      O1617   1.263       .  A
N1613      O1618   1.263       .  A
N1616      O1619   1.263       .  A
N1616      O1620   1.260       .  A
C1621      C1622   1.410       .  A
C1621      C1626   1.405       .  A
C1621      H1628   1.078       .  S
C1622      C1623   1.420       .  A
C1623      C1624   1.402       .  A
C1623      N1630   1.430       .  S
C1624      C1625   1.398       .  A
C1624      H1629   1.084       .  S
C1625      C1626   1.411       .  A
C1626      N1627   1.443       .  S
N1627      O1631   1.263       .  A
N1627      O1632   1.262       .  A
N1630      O1633   1.259       .  A
N1630      O1634   1.263       .  A
C1635      C1636   1.408       .  A
C1635      C1640   1.406       .  A
C1635      H1642   1.083       .  S
C1636      C1637   1.422       .  A
C1637      C1638   1.400       .  A
C1637      N1644   1.445       .  S
C1638      C1639   1.401       .  A
C1638      H1643   1.084       .  S
C1639      C1640   1.412       .  A
C1640      N1641   1.431       .  S
N1641      O1645   1.262       .  A
N1641      O1646   1.261       .  A
N1644      O1647   1.259       .  A
N1644      O1648   1.263       .  A
C1649      C1650   1.406       .  A
C1649      C1654   1.405       .  A
C1649      H1656   1.083       .  S
C1650      C1651   1.412       .  A
C1651      C1652   1.399       .  A
C1651      N1658   1.430       .  S
C1652      C1653   1.401       .  A
C1652      H1657   1.084       .  S
C1653      C1654   1.414       .  A
C1654      N1655   1.439       .  S
N1655      O1659   1.263       .  A
N1655      O1660   1.262       .  A
N1658      O1661   1.260       .  A
N1658      O1662   1.263       .  A
C1663      C1664   1.406       .  A
C1663      C1668   1.411       .  A
C1663      H1670   1.081       .  S
C1664      C1665   1.416       .  A
C1665      C1666   1.403       .  A
C1665      N1672   1.439       .  S
C1666      C1667   1.403       .  A
C1666      H1671   1.084       .  S
C1667      C1668   1.418       .  A
C1668      N1669   1.443       .  S
N1669      O1673   1.263       .  A
N1669      O1674   1.261       .  A
N1672      O1675   1.259       .  A
N1672      O1676   1.263       .  A
C1677      C1678   1.399       .  A
C1677      C1682   1.402       .  A
C1677      H1684   1.084       .  S
C1678      C1679   1.413       .  A
C1679      C1680   1.405       .  A
C1679      N1686   1.442       .  S
C1680      C1681   1.403       .  A
C1680      H1685   1.076       .  S
C1681      C1682   1.417       .  A
C1682      N1683   1.438       .  S
N1683      O1687   1.263       .  A
N1683      O1688   1.262       .  A
N1686      O1689   1.263       .  A
N1686      O1690   1.263       .  A
C1691      C1692   1.409       .  A
C1691      C1696   1.411       .  A
C1691      H1698   1.082       .  S
C1692      C1693   1.416       .  A
C1693      C1694   1.394       .  A
C1693      N1700   1.441       .  S
C1694      C1695   1.404       .  A
C1694      H1699   1.084       .  S
C1695      C1696   1.415       .  A
C1696      N1697   1.436       .  S
N1697      O1701   1.262       .  A
N1697      O1702   1.263       .  A
N1700      O1703   1.260       .  A
N1700      O1704   1.263       .  A
C1705      C1706   1.399       .  A
C1705      C1710   1.401       .  A
C1705      H1712   1.085       .  S
C1706      C1707   1.416       .  A
C1707      C1708   1.409       .  A
C1707      N1714   1.443       .  S
C1708      C1709   1.408       .  A
C1708      H1713   1.081       .  S
C1709      C1710   1.416       .  A
C1710      N1711   1.424       .  S
N1711      O1715   1.262       .  A
N1711      O1716   1.262       .  A
N1714      O1717   1.263       .  A
N1714      O1718   1.262       .  A
C1719      C1720   1.403       .  A
C1719      C1724   1.406       .  A
C1719      H1726   1.083       .  S
C1720      C1721   1.413       .  A
C1721      C1722   1.403       .  A
C1721      N1728   1.426       .  S
C1722      C1723   1.402       .  A
C1722      H1727   1.084       .  S
C1723      C1724   1.419       .  A
C1724      N1725   1.441       .  S
N1725      O1729   1.263       .  A
N1725      O1730   1.263       .  A
N1728      O1731   1.262       .  A
N1728      O1732   1.262       .  A
C1733      C1734   1.405       .  A
C1733      C1738   1.408       .  A
C1733      H1740   1.082       .  S
C1734      C1735   1.421       .  A
C1735      C1736   1.401       .  A
C1735      N1742   1.440       .  S
C1736      C1737   1.398       .  A
C1736      H1741   1.084       .  S
C1737      C1738   1.415       .  A
C1738      N1739   1.441       .  S
N1739      O1743   1.263       .  A
N1739      O1744   1.263       .  A
N1742      O1745   1.261       .  A
N1742      O1746   1.263       .  A
C1747      C1748   1.405       .  A
C1747      C1752   1.416       .  A
C1747      H1754   1.082       .  S
C1748      C1749   1.418       .  A
C1749      C1750   1.396       .  A
C1749      N1756   1.444       .  S
C1750      C1751   1.402       .  A
C1750      H1755   1.084       .  S
C1751      C1752   1.425       .  A
C1752      N1753   1.449       .  S
N1753      O1757   1.263       .  A
N1753      O1758   1.261       .  A
N1756      O1759   1.260       .  A
N1756      O1760   1.263       .  A
C1761      C1762   1.409       .  A
C1761      C1766   1.414       .  A
C1761      H1768   1.083       .  S
C1762      C1763   1.417       .  A
C1763      C1764   1.393       .  A
C1763      N1770   1.429       .  S
C1764      C1765   1.399       .  A
C1764      H1769   1.085       .  S
C1765      C1766   1.418       .  A
C1766      N1767   1.438       .  S
N1767      O1771   1.263       .  A
N1767      O1772   1.262       .  A
N1770      O1773   1.262       .  A
N1770      O1774   1.262       .  A
C1775      C1776   1.408       .  A
C1775      C1780   1.400       .  A
C1775      H1782   1.082       .  S
C1776      C1777   1.421       .  A
C1777      C1778   1.404       .  A
C1777      N1784   1.435       .  S
C1778      C1779   1.399       .  A
C1778      H1783   1.084       .  S
C1779      C1780   1.409       .  A
C1780      N1781   1.443       .  S
N1781      O1785   1.263       .  A
N1781      O1786   1.262       .  A
N1784      O1787   1.261       .  A
N1784      O1788   1.263       .  A
C1789      C1790   1.400       .  A
C1789      C1794   1.395       .  A
C1789      H1796   1.079       .  S
C1790      C1791   1.424       .  A
C1791      C1792   1.416       .  A
C1791      N1798   1.445       .  S
C1792      C1793   1.405       .  A
C1792      H1797   1.083       .  S
C1793      C1794   1.413       .  A
C1794      N1795   1.442       .  S
N1795      O1799   1.263       .  A
N1795      O1800   1.263       .  A
N1798      O1801   1.261       .  A
N1798      O1802   1.263       .  A
C1803      C1804   1.406       .  A
C1803      C1808   1.408       .  A
C1803      H1810   1.081       .  S
C1804      C1805   1.416       .  A
C1805      C1806   1.403       .  A
C1805      N1812   1.437       .  S
C1806      C1807   1.401       .  A
C1806      H1811   1.084       .  S
C1807      C1808   1.415       .  A
C1808      N1809   1.441       .  S
N1809      O1813   1.263       .  A
N1809      O1814   1.261       .  A
N1812      O1815   1.259       .  A
N1812      O1816   1.263       .  A
C1817      C1818   1.404       .  A
C1817      C1822   1.407       .  A
C1817      H1824   1.084       .  S
C1818      C1819   1.408       .  A
C1819      C1820   1.399       .  A
C1819      N1826   1.442       .  S
C1820      C1821   1.409       .  A
C1820      H1825   1.082       .  S
C1821      C1822   1.417       .  A
C1822      N1823   1.432       .  S
N1823      O1827   1.262       .  A
N1823      O1828   1.260       .  A
N1826      O1829   1.263       .  A
N1826      O1830   1.263       .  A
C1831      C1832   1.405       .  A
C1831      C1836   1.394       .  A
C1831      H1838   1.084       .  S
C1832      C1833   1.416       .  A
C1833      C1834   1.403       .  A
C1833      N1840   1.433       .  S
C1834      C1835   1.404       .  A
C1834      H1839   1.080       .  S
C1835      C1836   1.410       .  A
C1836      N1837   1.430       .  S
N1837      O1841   1.263       .  A
N1837      O1842   1.261       .  A
N1840      O1843   1.262       .  A
N1840      O1844   1.262       .  A
C1845      C1846   1.402       .  A
C1845      C1850   1.399       .  A
C1845      H1852   1.077       .  S
C1846      C1847   1.414       .  A
C1847      C1848   1.403       .  A
C1847      N1854   1.436       .  S
C1848      C1849   1.401       .  A
C1848      H1853   1.084       .  S
C1849      C1850   1.414       .  A
C1850      N1851   1.442       .  S
N1851      O1855   1.263       .  A
N1851      O1856   1.263       .  A
N1854      O1857   1.261       .  A
N1854      O1858   1.263       .  A
C1859      C1860   1.405       .  A
C1859      C1864   1.400       .  A
C1859      H1866   1.082       .  S
C1860      C1861   1.418       .  A
C1861      C1862   1.412       .  A
C1861      N1868   1.438       .  S
C1862      C1863   1.403       .  A
C1862      H1867   1.083       .  S
C1863      C1864   1.413       .  A
C1864      N1865   1.442       .  S
N1865      O1869   1.263       .  A
N1865      O1870   1.263       .  A
N1868      O1871   1.261       .  A
N1868      O1872   1.263       .  A
C1873      C1874   1.407       .  A
C1873      C1878   1.402       .  A
C1873      H1880   1.081       .  S
C1874      C1875   1.415       .  A
C1875      C1876   1.401       .  A
C1875      N1882   1.435       .  S
C1876      C1877   1.400       .  A
C1876      H1881   1.084       .  S
C1877      C1878   1.410       .  A
C1878      N1879   1.440       .  S
N1879      O1883   1.263       .  A
N1879      O1884   1.262       .  A
N1882      O1885   1.261       .  A
N1882      O1886   1.263       .  A
C1887      C1888   1.409       .  A
C1887      C1892   1.402       .  A
C1887      H1894   1.077       .  S
C1888      C1889   1.423       .  A
C1889      C1890   1.403       .  A
C1889      N1896   1.434       .  S
C1890      C1891   1.399       .  A
C1890      H1895   1.084       .  S
C1891      C1892   1.410       .  A
C1892      N1893   1.439       .  S
N1893      O1897   1.263       .  A
N1893      O1898   1.261       .  A
N1896      O1899   1.258       .  A
N1896      O1900   1.263       .  A
C1901      C1902   1.403       .  A
C1901      C1906   1.399       .  A
C1901      H1908   1.076       .  S
C1902      C1903   1.414       .  A
C1903      C1904   1.404       .  A
C1903      N1910   1.435       .  S
C1904      C1905   1.401       .  A
C1904      H1909   1.084       .  S
C1905      C1906   1.409       .  A
C1906      N1907   1.443       .  S
N1907      O1911   1.263       .  A
N1907      O1912   1.263       .  A
N1910      O1913   1.263       .  A
N1910      O1914   1.261       .  A
C1915      C1916   1.406       .  A
C1915      C1920   1.401       .  A
C1915      H1922   1.081       .  S
C1916      C1917   1.415       .  A
C1917      C1918   1.402       .  A
C1917      N1924   1.426       .  S
C1918      C1919   1.402       .  A
C1918      H1923   1.083       .  S
C1919      C1920   1.415       .  A
C1920      N1921   1.440       .  S
N1921      O1925   1.263       .  A
N1921      O1926   1.263       .  A
N1924      O1927   1.262       .  A
N1924      O1928   1.261       .  A
C1929      C1930   1.400       .  A
C1929      C1934   1.403       .  A
C1929      H1936   1.081       .  S
C1930      C1931   1.424       .  A
C1931      C1932   1.406       .  A
C1931      N1938   1.446       .  S
C1932      C1933   1.398       .  A
C1932      H1937   1.083       .  S
C1933      C1934   1.415       .  A
C1934      N1935   1.442       .  S
N1935      O1939   1.263       .  A
N1935      O1940   1.262       .  A
N1938      O1941   1.263       .  A
N1938      O1942   1.263       .  A
C1943      C1944   1.394       .  A
C1943      C1948   1.393       .  A
C1943      H1950   1.085       .  S
C1944      C1945   1.414       .  A
C1945      C1946   1.412       .  A
C1945      N1952   1.440       .  S
C1946      C1947   1.412       .  A
C1946      H1951   1.074       .  S
C1947      C1948   1.419       .  A
C1948      N1949   1.423       .  S
N1949      O1953   1.261       .  A
N1949      O1954   1.263       .  A
N1952      O1955   1.263       .  A
N1952      O1956   1.263       .  A
C1957      C1958   1.405       .  A
C1957      C1962   1.404       .  A
C1957      H1964   1.084       .  S
C1958      C1959   1.426       .  A
C1959      C1960   1.407       .  A
C1959      N1966   1.449       .  S
C1960      C1961   1.402       .  A
C1960      H1965   1.084       .  S
C1961      C1962   1.413       .  A
C1962      N1963   1.438       .  S
N1963      O1967   1.263       .  A
N1963      O1968   1.262       .  A
N1966      O1969   1.261       .  A
N1966      O1970   1.263       .  A
C1971      C1972   1.400       .  A
C1971      C1976   1.411       .  A
C1971      H1978   1.083       .  S
C1972      C1973   1.410       .  A
C1973      C1974   1.396       .  A
C1973      N1980   1.440       .  S
C1974      C1975   1.411       .  A
C1974      H1979   1.067       .  S
C1975      C1976   1.428       .  A
C1976      N1977   1.429       .  S
N1977      O1981   1.263       .  A
N1977      O1982   1.263       .  A
N1980      O1983   1.263       .  A
N1980      O1984   1.263       .  A
C1985      C1986   1.400       .  A
C1985      C1990   1.400       .  A
C1985      H1992   1.084       .  S
C1986      C1987   1.418       .  A
C1987      C1988   1.413       .  A
C1987      N1994   1.443       .  S
C1988      C1989   1.407       .  A
C1988      H1993   1.083       .  S
C1989      C1990   1.417       .  A
C1990      N1991   1.438       .  S
N1991      O1995   1.263       .  A
N1991      O1996   1.259       .  A
N1994      O1997   1.262       .  A
N1994      O1998   1.263       .  A
C1999      C2000   1.404       .  A
C1999      C2004   1.406       .  A
C1999      H2006   1.084       .  S
C2000      C2001   1.415       .  A
C2001      C2002   1.406       .  A
C2001      N2008   1.439       .  S
C2002      C2003   1.407       .  A
C2002      H2007   1.083       .  S
C2003      C2004   1.414       .  A
C2004      N2005   1.435       .  S
N2005      O2009   1.263       .  A
N2005      O2010   1.260       .  A
N2008      O2011   1.262       .  A
N2008      O2012   1.263       .  A
C2013      C2014   1.411       .  A
C2013      C2018   1.418       .  A
C2013      H2020   1.080       .  S
C2014      C2015   1.414       .  A
C2015      C2016   1.388       .  A
C2015      N2022   1.440       .  S
C2016      C2017   1.408       .  A
C2016      H2021   1.079       .  S
C2017      C2018   1.423       .  A
C2018      N2019   1.436       .  S
N2019      O2023   1.263       .  A
N2019      O2024   1.263       .  A
N2022      O2025   1.260       .  A
N2022      O2026   1.262       .  A
C2027      C2028   1.404       .  A
C2027      C2032   1.413       .  A
C2027      H2034   1.078       .  S
C2028      C2029   1.416       .  A
C2029      C2030   1.406       .  A
C2029      N2036   1.441       .  S
C2030      C2031   1.401       .  A
C2030      H2035   1.083       .  S
C2031      C2032   1.421       .  A
C2032      N2033   1.444       .  S
N2033      O2037   1.263       .  A
N2033      O2038   1.261       .  A
N2036      O2039   1.263       .  A
N2036      O2040   1.263       .  A
C2041      C2042   1.409       .  A
C2041      C2046   1.398       .  A
C2041      H2048   1.081       .  S
C2042      C2043   1.420       .  A
C2043      C2044   1.405       .  A
C2043      N2050   1.437       .  S
C2044      C2045   1.402       .  A
C2044      H2049   1.084       .  S
C2045      C2046   1.409       .  A
C2046      N2047   1.442       .  S
N2047      O2051   1.263       .  A
N2047      O2052   1.262       .  A
N2050      O2053   1.259       .  A
N2050      O2054   1.263       .  A
C2055      C2056   1.408       .  A
C2055      C2060   1.412       .  A
C2055      H2062   1.084       .  S
C2056      C2057   1.415       .  A
C2057      C2058   1.393       .  A
C2057      N2064   1.427       .  S
C2058      C2059   1.399       .  A
C2058      H2063   1.085       .  S
C2059      C2060   1.415       .  A
C2060      N2061   1.433       .  S
N2061      O2065   1.262       .  A
N2061      O2066   1.261       .  A
N2064      O2067   1.263       .  A
N2064      O2068   1.261       .  A
C2069      C2070   1.409       .  A
C2069      C2074   1.404       .  A
C2069      H2076   1.076       .  S
C2070      C2071   1.416       .  A
C2071      C2072   1.406       .  A
C2071      N2078   1.430       .  S
C2072      C2073   1.403       .  A
C2072      H2077   1.084       .  S
C2073      C2074   1.409       .  A
C2074      N2075   1.442       .  S
N2075      O2079   1.263       .  A
N2075      O2080   1.262       .  A
N2078      O2081   1.262       .  A
N2078      O2082   1.260       .  A
C2083      C2084   1.400       .  A
C2083      C2088   1.394       .  A
C2083      H2090   1.076       .  S
C2084      C2085   1.424       .  A
C2085      C2086   1.414       .  A
C2085      N2092   1.446       .  S
C2086      C2087   1.405       .  A
C2086      H2091   1.082       .  S
C2087      C2088   1.411       .  A
C2088      N2089   1.443       .  S
N2089      O2093   1.263       .  A
N2089      O2094   1.263       .  A
N2092      O2095   1.261       .  A
N2092      O2096   1.263       .  A
C2097      C2098   1.404       .  A
C2097      C2102   1.406       .  A
C2097      H2104   1.082       .  S
C2098      C2099   1.419       .  A
C2099      C2100   1.400       .  A
C2099      N2106   1.442       .  S
C2100      C2101   1.398       .  A
C2100      H2105   1.084       .  S
C2101      C2102   1.415       .  A
C2102      N2103   1.442       .  S
N2103      O2107   1.263       .  A
N2103      O2108   1.263       .  A
N2106      O2109   1.262       .  A
N2106      O2110   1.263       .  A
C2111      C2112   1.400       .  A
C2111      C2116   1.396       .  A
C2111      H2118   1.084       .  S
C2112      C2113   1.415       .  A
C2113      C2114   1.411       .  A
C2113      N2120   1.439       .  S
C2114      C2115   1.409       .  A
C2114      H2119   1.081       .  S
C2115      C2116   1.419       .  A
C2116      N2117   1.437       .  S
N2117      O2121   1.263       .  A
N2117      O2122   1.259       .  A
N2120      O2123   1.262       .  A
N2120      O2124   1.263       .  A
C2125      C2126   1.407       .  A
C2125      C2130   1.410       .  A
C2125      H2132   1.084       .  S
C2126      C2127   1.416       .  A
C2127      C2128   1.398       .  A
C2127      N2134   1.432       .  S
C2128      C2129   1.401       .  A
C2128      H2133   1.084       .  S
C2129      C2130   1.419       .  A
C2130      N2131   1.438       .  S
N2131      O2135   1.262       .  A
N2131      O2136   1.263       .  A
N2134      O2137   1.263       .  A
N2134      O2138   1.262       .  A
C2139      C2140   1.421       .  A
C2139      C2144   1.385       .  A
C2139      H2146   1.072       .  S
C2140      C2141   1.436       .  A
C2141      C2142   1.414       .  A
C2141      N2148   1.430       .  S
C2142      C2143   1.396       .  A
C2142      H2147   1.083       .  S
C2143      C2144   1.400       .  A
C2144      N2145   1.439       .  S
N2145      O2149   1.260       .  A
N2145      O2150   1.262       .  A
N2148      O2151   1.263       .  A
N2148      O2152   1.261       .  A
C2153      C2154   1.406       .  A
C2153      C2158   1.404       .  A
C2153      H2160   1.080       .  S
C2154      C2155   1.412       .  A
C2155      C2156   1.398       .  A
C2155      N2162   1.426       .  S
C2156      C2157   1.401       .  A
C2156      H2161   1.084       .  S
C2157      C2158   1.415       .  A
C2158      N2159   1.441       .  S
N2159      O2163   1.263       .  A
N2159      O2164   1.263       .  A
N2162      O2165   1.260       .  A
N2162      O2166   1.262       .  A
C2167      C2168   1.406       .  A
C2167      C2172   1.399       .  A
C2167      H2174   1.079       .  S
C2168      C2169   1.421       .  A
C2169      C2170   1.408       .  A
C2169      N2176   1.441       .  S
C2170      C2171   1.400       .  A
C2170      H2175   1.083       .  S
C2171      C2172   1.411       .  A
C2172      N2173   1.441       .  S
N2173      O2177   1.263       .  A
N2173      O2178   1.263       .  A
N2176      O2179   1.258       .  A
N2176      O2180   1.263       .  A
C2181      C2182   1.407       .  A
C2181      C2186   1.401       .  A
C2181      H2188   1.075       .  S
C2182      C2183   1.419       .  A
C2183      C2184   1.405       .  A
C2183      N2190   1.432       .  S
C2184      C2185   1.401       .  A
C2184      H2189   1.084       .  S
C2185      C2186   1.410       .  A
C2186      N2187   1.442       .  S
N2187      O2191   1.263       .  A
N2187      O2192   1.262       .  A
N2190      O2193   1.262       .  A
N2190      O2194   1.260       .  A
C2195      C2196   1.400       .  A
C2195      C2200   1.405       .  A
C2195      H2202   1.083       .  S
C2196      C2197   1.409       .  A
C2197      C2198   1.398       .  A
C2197      N2204   1.442       .  S
C2198      C2199   1.404       .  A
C2198      H2203   1.073       .  S
C2199      C2200   1.421       .  A
C2200      N2201   1.440       .  S
N2201      O2205   1.263       .  A
N2201      O2206   1.260       .  A
N2204      O2207   1.263       .  A
N2204      O2208   1.263       .  A
