geometry optimzed in LAMMPS
_audit_creation_date              2020-11-30 
_audit_creation_method            'lammps2cif' 
_symmetry_space_group_name_H-M    'P1' 
_symmetry_Int_Tables_number       1 
_symmetry_cell_setting            triclinic 
loop_ 
_symmetry_equiv_pos_as_xyz 
  x,y,z 
_cell_length_a                    49.94709742 
_cell_length_b                    50.219414856653714 
_cell_length_c                    70.89871452174197 
_cell_angle_alpha                 90.31836106874476 
_cell_angle_beta                  89.15037195501458 
_cell_angle_gamma                 120.34214398490317 
loop_ 
_atom_site_label 
_atom_site_type_symbol 
_atom_site_fract_x 
_atom_site_fract_y 
_atom_site_fract_z 
_atom_site_charge 
O1          O  0.08292012  0.19901536  0.36371593    -0.88600
C2          C  0.10716884  0.13560081  0.34652351     0.87400
Mg3        Mg  0.03842419  0.19430146  0.35877263     1.58100
O4          O  0.14114724  0.20536062  0.32041844    -0.88400
O5          O  0.13216661  0.23212837  0.35952023    -0.75700
C6          C  0.01556589  0.16223783  0.26760603     0.92400
O7          O  0.03748071  0.12587512  0.36007834    -0.75500
O8          O  0.50060285  0.15963801  0.28281261    -0.83000
Mg9        Mg  0.08195652  0.15943721  0.37587777     1.58000
C10         C  0.13679402  0.19028430  0.26190023     0.92400
O11         O  0.12369531  0.18653078  0.39458912    -0.81300
H12         H  0.16866363  0.25109718  0.31796580    -0.06600
C13         C  0.06299697  0.13343930  0.29823556     0.87300
O14         O  0.05820368  0.22725250  0.33321891    -0.75800
O15         O  0.11154357  0.16049941  0.35273239    -0.88600
O16         O  0.15158757  0.19458710  0.27709168    -0.81400
C17         C  0.19410148  0.17746340  0.32351471     0.92500
C18         C  0.15280441  0.19720177  0.39430911     0.92300
Mg19       Mg  0.08575534  0.19823886  0.28610405     1.58000
O20         O  0.04366478  0.16889078  0.26795768    -0.81300
O21         O  0.13074320  0.23286709  0.30126791    -0.75500
O22         O  0.18599948  0.18579937  0.33855224    -0.81400
O23         O  0.05303400  0.16139109  0.40063419    -0.83100
O24         O  0.48282026  0.17487631  0.32396564    -0.81400
C25         C  0.14791545  0.23053381  0.31342675     0.86800
O26         O  0.05700988  0.19914883  0.30923669    -0.88500
O27         O  0.08544391  0.15984745  0.29935736    -0.88700
O28         O  0.03582906  0.12752032  0.30267195    -0.75700
Mg29       Mg  0.15456854  0.20455474  0.34879545     1.58000
O30         O  0.17814413  0.17032779  0.30858755    -0.83100
H31         H  0.10137489  0.24370699  0.36998463    -0.06800
O32         O  0.02707300  0.15416538  0.34168955    -0.88400
H33         H  0.99958069  0.10837053  0.34342714    -0.06600
H34         H  0.07160195  0.24409902  0.30662285    -0.06800
C35         C  0.02028098  0.12873508  0.34822282     0.86700
C36         C  0.10515017  0.22554835  0.36482289     0.87300
C37         C  0.06242977  0.22419382  0.31580960     0.87400
H38         H  0.06656012  0.11491490  0.29358235    -0.06800
O39         O  0.11166781  0.13225239  0.32921426    -0.75800
Mg40       Mg  0.01373244  0.15562507  0.31323160     1.58000
H41         H  0.09864864  0.11604514  0.35594866    -0.06800
C42         C  0.02871627  0.16357422  0.40106952     0.92400
O43         O  0.99151612  0.18948521  0.35399244    -0.83000
C44         C  0.47520519  0.18273017  0.33938784     0.92400
O45         O  0.16828177  0.20268859  0.37894582    -0.83000
Mg46       Mg  0.13065597  0.16516807  0.30375682     1.58200
O47         O  0.01683925  0.16622191  0.38594857    -0.81400
O48         O  0.11265562  0.19264129  0.26161694    -0.83100
C49         C  0.17639148  0.08359488  0.20787376    -0.11200
C50         C  0.17293384  0.10678311  0.21658105    -0.05000
C51         C  0.17111193  0.12938336  0.20615258    -0.11100
C52         C  0.17274320  0.12903495  0.18621358     0.09800
C53         C  0.17795446  0.10676110  0.17711733    -0.02900
C54         C  0.18033565  0.08427576  0.18796713     0.09600
C55         C  0.18655178  0.06316374  0.17863661    -0.12900
C56         C  0.19046742  0.06410445  0.15904393    -0.12900
C57         C  0.18737403  0.08559020  0.14806293     0.09600
C58         C  0.18043340  0.10675302  0.15710438    -0.02900
C59         C  0.16933389  0.15031645  0.17516605    -0.13100
C60         C  0.17107398  0.14985856  0.15548802    -0.13100
C61         C  0.17667923  0.12836769  0.14617807     0.09800
C62         C  0.17937832  0.12817687  0.12623962    -0.11100
C63         C  0.18644485  0.10736754  0.11773827    -0.05000
C64         C  0.19149601  0.08698932  0.12824734    -0.11200
H65         H  0.18892204  0.04606682  0.18650365     0.07100
H66         H  0.19568187  0.04768324  0.15249548     0.07100
H67         H  0.16531852  0.16755408  0.18169706     0.07200
H68         H  0.16829376  0.16667814  0.14758822     0.07200
H69         H  0.16976121  0.10620392  0.23178351     0.03700
H70         H  0.18950794  0.10802131  0.10251165     0.03700
C71         C  0.44657603  0.10928445  0.20204019    -0.11200
C72         C  0.42584718  0.08105801  0.21027915    -0.05000
C73         C  0.40413323  0.05616846  0.19987546    -0.11100
C74         C  0.40450496  0.05811983  0.18005575     0.09800
C75         C  0.42707287  0.08587983  0.17108364    -0.02900
C76         C  0.44811644  0.11176520  0.18210419     0.09600
C77         C  0.46973661  0.13909320  0.17288841    -0.12900
C78         C  0.47169732  0.14065779  0.15326048    -0.12900
C79         C  0.45113930  0.11542252  0.14214277     0.09600
C80         C  0.42827253  0.08790273  0.15109765    -0.02900
C81         C  0.38329873  0.03324746  0.16904819    -0.13100
C82         C  0.38427712  0.03538517  0.14941753    -0.13100
C83         C  0.40637701  0.06254663  0.14013615     0.09800
C84         C  0.40727234  0.06510252  0.12018172    -0.11100
C85         C  0.43062962  0.09217859  0.11165807    -0.05000
C86         C  0.45247734  0.11711263  0.12225756    -0.11200
H87         H  0.48547094  0.15946546  0.18075417     0.07100
H88         H  0.48924427  0.16205160  0.14684694     0.07100
H89         H  0.36592978  0.01186396  0.17558172     0.07200
H90         H  0.36773588  0.01539697  0.14154728     0.07200
H91         H  0.42585625  0.07858735  0.22549897     0.03700
H92         H  0.43107340  0.09447229  0.09642970     0.03700
O93         O  0.08841377  0.46248530  0.30473623    -0.88600
C94         C  0.06491010  0.37131904  0.30715928     0.87400
Mg95       Mg  0.13194391  0.49924664  0.31421777     1.58100
O96         O  0.02953383  0.39258448  0.34333127    -0.88400
O97         O  0.03957118  0.44361756  0.31238282    -0.75700
C98         C  0.15511501  0.45618017  0.39781118     0.92400
O99         O  0.13391785  0.43474212  0.29923259    -0.75500
O100        O  0.16927923  0.47067711  0.38290160    -0.83000
Mg101      Mg  0.08983942  0.42922476  0.28593547     1.58000
C102        C  0.03167026  0.36155977  0.39889401     0.92400
O103        O  0.04805824  0.42063794  0.26820475    -0.81300
H104        H  0.00098570  0.40739456  0.35188615    -0.06600
C105        C  0.10774693  0.39175486  0.35802301     0.87300
O106        O  0.11088512  0.49929507  0.34329118    -0.75800
O107        O  0.06021164  0.39309187  0.30574874    -0.88600
O108        O  0.02036210  0.35036096  0.38272828    -0.81400
C109        C  0.47689855  0.31659979  0.32694054     0.92500
C110        C  0.01925994  0.40055227  0.26874558     0.92300
Mg111      Mg  0.08396102  0.42774302  0.38045655     1.58000
O112        O  0.12622629  0.43638934  0.39790715    -0.81300
O113        O  0.03917670  0.42202573  0.36798322    -0.75500
O114        O  0.48520087  0.33820374  0.31497947    -0.81400
O115        O  0.12078353  0.46771396  0.26537543    -0.83100
O116        O  0.18633165  0.01915718  0.35096987    -0.81400
C117        C  0.02208000  0.40695005  0.35429952     0.86800
O118        O  0.11261617  0.46446983  0.36079598    -0.88500
O119        O  0.08500668  0.39475986  0.36106129    -0.88700
O120        O  0.13425552  0.41469900  0.35403095    -0.75700
Mg121      Mg  0.01726747  0.39114204  0.31422790     1.58000
O122        O  0.49285832  0.31953336  0.34152723    -0.83100
H123        H  0.06931461  0.48899803  0.30718268    -0.06800
O124        O  0.14363532  0.46531728  0.32335860    -0.88400
H125        H  0.17185023  0.44969762  0.31558507    -0.06600
H126        H  0.09673501  0.49132250  0.37070200    -0.06800
C127        C  0.15095736  0.45034109  0.31280931     0.86700
C128        C  0.06600233  0.46601218  0.30775070     0.87300
C129        C  0.10662397  0.48533830  0.35890216     0.87400
H130        H  0.10481552  0.36890417  0.35825181    -0.06800
O131        O  0.06037368  0.35693526  0.32260419    -0.75800
Mg132      Mg  0.15601195  0.46740985  0.35247222     1.58000
H133        H  0.07388195  0.36488903  0.29508802    -0.06800
C134        C  0.14409571  0.49477849  0.26737637     0.92400
O135        O  0.17768680  0.03734960  0.32452236    -0.83000
C136        C  0.19364150  0.04084982  0.33916337     0.92400
O137        O  0.50409006  0.38709540  0.28370517    -0.83000
Mg138      Mg  0.04049565  0.35779427  0.35188650     1.58200
O139        O  0.15325481  0.50643665  0.28375743    -0.81400
O140        O  0.05488348  0.38866696  0.40061926    -0.83100
O141        O  0.35485264  0.42306008  0.30255124    -0.88600
C142        C  0.29256901  0.45161917  0.31524662     0.87400
Mg143      Mg  0.34889349  0.37899553  0.31012155     1.58100
O144        O  0.36155910  0.48872769  0.34161959    -0.88400
O145        O  0.38850402  0.47240388  0.30504735    -0.75700
C146        C  0.31320319  0.36789577  0.40008744     0.92400
O147        O  0.28024218  0.38079108  0.30655213    -0.75500
O148        O  0.30735168  0.35118457  0.38551190    -0.83000
Mg149      Mg  0.31596191  0.42230863  0.28929140     1.58000
C150        C  0.35085304  0.49044319  0.40094533     0.92400
O151        O  0.34597898  0.45989693  0.26855716    -0.81300
H152        H  0.40779771  0.51387927  0.34269832    -0.06600
C153        C  0.28724721  0.41338486  0.36609919     0.87300
O154        O  0.38071335  0.39998904  0.33543166    -0.75800
O155        O  0.31757937  0.45465787  0.30994343    -0.88600
O156        O  0.34437719  0.50102427  0.38638249    -0.81400
C157        C  0.33443364  0.03993734  0.33171973     0.92500
C158        C  0.35632085  0.48852541  0.26656508     0.92300
Mg159      Mg  0.35355200  0.43533675  0.37786586     1.58000
O160        O  0.32466786  0.39691509  0.39916738    -0.81300
O161        O  0.38852446  0.47683823  0.36022459    -0.75500
O162        O  0.34281984  0.03001048  0.31755441    -0.81400
O163        O  0.31611860  0.39048884  0.26723686    -0.83100
O164        O  0.32608092  0.32817363  0.34901377    -0.81400
C165        C  0.38669494  0.49430543  0.34809249     0.86800
O166        O  0.35116099  0.40307602  0.35712156    -0.88500
O167        O  0.31424439  0.43517691  0.36529891    -0.88700
O168        O  0.28043175  0.38598718  0.36214052    -0.75700
Mg169      Mg  0.36149362  0.49731658  0.31194854     1.58000
O170        O  0.32627092  0.52573905  0.34791670    -0.83100
H171        H  0.40028799  0.44036424  0.29807070    -0.06800
O172        O  0.30740036  0.36993276  0.32561024    -0.88400
H173        H  0.26123056  0.34396371  0.32425308    -0.06600
H174        H  0.39506931  0.41480143  0.36204929    -0.06800
C175        C  0.28222029  0.36372521  0.31890360     0.86700
C176        C  0.38181322  0.44489324  0.30156056     0.87300
C177        C  0.37624672  0.40599911  0.35214256     0.87400
H178        H  0.26881900  0.41789961  0.36975856    -0.06800
O179        O  0.28865919  0.45816378  0.33197044    -0.75800
Mg180      Mg  0.30697899  0.36078473  0.35485759     1.58000
H181        H  0.27339143  0.44247738  0.30558951    -0.06800
C182        C  0.31931026  0.36704915  0.26717825     0.92400
O183        O  0.34299746  0.33303211  0.31920663    -0.83000
C184        C  0.33542023  0.31891780  0.33499408     0.92400
O185        O  0.36141583  0.00663799  0.28015757    -0.83000
Mg186      Mg  0.32019971  0.47942299  0.35754046     1.58200
O187        O  0.32333853  0.35631642  0.28247596    -0.81400
O188        O  0.35504749  0.46759852  0.39985565    -0.83100
C189        C  0.43469655  0.35740037  0.20764587    -0.11200
C190        C  0.40916586  0.35607030  0.21688686    -0.05000
C191        C  0.38113034  0.34590571  0.20777818    -0.11100
C192        C  0.37910759  0.33878833  0.18840695     0.09800
C193        C  0.40450208  0.33877978  0.17900850    -0.02900
C194        C  0.43215693  0.34723648  0.18880841     0.09600
C195        C  0.45636379  0.34552503  0.17950486    -0.12900
C196        C  0.45342979  0.33566810  0.16075616    -0.12900
C197        C  0.42666390  0.32828220  0.15058366     0.09600
C198        C  0.40220357  0.33037776  0.15976771    -0.02900
C199        C  0.35253703  0.33180315  0.17821169    -0.13100
C200        C  0.35128806  0.32598104  0.15899963    -0.13100
C201        C  0.37559490  0.32463557  0.14963747     0.09800
C202        C  0.37437030  0.31823448  0.13027575    -0.11100
C203        C  0.39730446  0.31416516  0.12171765    -0.05000
C204        C  0.42325074  0.31878337  0.13146653    -0.11200
H205        H  0.47764354  0.35161875  0.18673873     0.07100
H206        H  0.47242977  0.33437239  0.15415274     0.07100
H207        H  0.33280857  0.33161180  0.18487361     0.07200
H208        H  0.33083799  0.32217921  0.15166358     0.07200
H209        H  0.41106124  0.36276679  0.23161535     0.03700
H210        H  0.39520440  0.30788018  0.10689983     0.03700
O211        O  0.26493317  0.00834806  0.96412476    -0.88600
C212        C  0.18084628  0.45006145  0.99129249     0.87400
Mg213      Mg  0.30665988  0.00644739  0.96830378     1.58100
O214        O  0.21913738  0.02620518  0.00760113    -0.88400
O215        O  0.24638026  0.03962676  0.96543583    -0.75700
C216        C  0.31907236  0.00736253  0.06126643     0.92400
O217        O  0.23801566  0.43727231  0.97733821    -0.75500
O218        O  0.32582721  0.99718597  0.04652839    -0.83000
Mg219      Mg  0.22271034  0.46390971  0.95827732     1.58000
C220        C  0.22698800  0.03795836  0.06678973     0.92400
O221        O  0.20362339  0.48412479  0.93684178    -0.81300
H222        H  0.23718768  0.07146069  0.00340971    -0.06600
C223        C  0.23392943  0.46494296  0.03742063     0.87300
O224        O  0.32488105  0.04665166  0.98947509    -0.75800
O225        O  0.19977777  0.47244213  0.98182972    -0.88600
O226        O  0.20675794  0.02613219  0.05392084    -0.81400
C227        C  0.13808451  0.49576595  0.01053119     0.92500
C228        C  0.18237513  0.49111449  0.93690955     0.92300
Mg229      Mg  0.27814489  0.03411597  0.03958090     1.58000
O230        O  0.29862047  0.01532399  0.06086443    -0.81300
O231        O  0.26232833  0.06058666  0.02068976    -0.75500
O232        O  0.14940128  0.49550667  0.99426387    -0.81400
O233        O  0.24637503  0.45449328  0.93330582    -0.83100
O234        O  0.35203914  0.00487289  0.00423976    -0.81400
C235        C  0.23910292  0.05339424  0.01035705     0.86800
O236        O  0.30145935  0.02632982  0.01623271    -0.88500
O237        O  0.23686055  0.49039175  0.03395173    -0.88700
O238        O  0.25430005  0.45822077  0.03225129    -0.75700
Mg239      Mg  0.19812325  0.01392836  0.98018592     1.58000
O240        O  0.15206630  0.49713316  0.02568212    -0.83100
H241        H  0.28791730  0.05096288  0.95327698    -0.06800
O242        O  0.28138373  0.47190486  0.99015893    -0.88400
H243        H  0.26339525  0.42671847  0.99461560    -0.06600
H244        H  0.33280873  0.07123733  0.01366800    -0.06800
C245        C  0.26140252  0.44465904  0.98755804     0.86700
C246        C  0.26732506  0.03353271  0.96053982     0.87300
C247        C  0.32031523  0.04894648  0.00691506     0.87400
H248        H  0.21324283  0.44775938  0.04472755    -0.06800
O249        O  0.17648295  0.45267869  0.00873024    -0.75800
Mg250      Mg  0.30239564  0.48373027  0.01751210     1.58000
H251        H  0.16803986  0.42769752  0.98466022    -0.06800
C252        C  0.27334520  0.45795214  0.93137442     0.92400
O253        O  0.34976269  0.00272760  0.97281172    -0.83000
C254        C  0.36349259  0.00445034  0.98810391     0.92400
O255        O  0.17574465  0.50092245  0.95183464    -0.83000
Mg256      Mg  0.19530321  0.49294237  0.02992440     1.58200
O257        O  0.29388126  0.47100217  0.94398424    -0.81400
O258        O  0.25399777  0.04171353  0.06464588    -0.83100
O259        O  0.25057438  0.22596763  0.97102543    -0.88600
C260        C  0.27554074  0.31546093  0.98202055     0.87400
Mg261      Mg  0.20473288  0.18686552  0.97381216     1.58100
O262        O  0.30709068  0.28334305  0.01268061    -0.88400
O263        O  0.30000962  0.24369877  0.97599924    -0.75700
C264        C  0.17942826  0.19779236  0.06215978     0.92400
O265        O  0.20791147  0.25656872  0.97027515    -0.75500
O266        O  0.16254791  0.18250027  0.04837132    -0.83000
Mg267      Mg  0.25364596  0.26419988  0.95646013     1.58000
C268        C  0.29445608  0.29064810  0.06949882     0.92400
O269        O  0.29689518  0.27011581  0.94152430    -0.81300
H270        H  0.33299056  0.26402702  0.01715010    -0.06600
C271        C  0.22299222  0.27464979  0.03006245     0.87300
O272        O  0.21964954  0.17220241  0.00055341    -0.75800
O273        O  0.27950617  0.29353750  0.97906879    -0.88600
O274        O  0.30527271  0.30773998  0.05501309    -0.81400
C275        C  0.35694410  0.36366796  0.00752109     0.92500
C276        C  0.32098656  0.29622301  0.93903494     0.92300
Mg277      Mg  0.24535705  0.23406212  0.04417797     1.58000
O278        O  0.20130075  0.22512008  0.05929425    -0.81300
O279        O  0.29172767  0.24333171  0.03128954    -0.75500
O280        O  0.35079518  0.34697948  0.99274996    -0.81400
O281        O  0.22735690  0.23603097  0.93176336    -0.83100
O282        O  0.14996986  0.14959982  0.00819224    -0.81400
C283        C  0.31175914  0.26401981  0.02036895     0.86800
O284        O  0.21986303  0.20434956  0.02121810    -0.88500
O285        O  0.24615972  0.27176191  0.02929472    -0.88700
O286        O  0.19599656  0.25208321  0.02660778    -0.75700
Mg287      Mg  0.32244491  0.29552921  0.98407522     1.58000
O288        O  0.33936581  0.35497284  0.02208878    -0.83100
H289        H  0.26965341  0.19935023  0.96854408    -0.06800
O290        O  0.19076792  0.21591896  0.98876380    -0.88400
H291        H  0.16762487  0.23847043  0.98546900    -0.06600
H292        H  0.23058529  0.17226810  0.02807344    -0.06800
C293        C  0.18773044  0.23674091  0.98165273     0.86700
C294        C  0.27301847  0.22191946  0.97170040     0.87300
C295        C  0.22364989  0.18254862  0.01724495     0.87400
H296        H  0.22566698  0.29671774  0.03391620    -0.06800
O297        O  0.27739616  0.32577151  0.99851534    -0.75800
Mg298      Mg  0.17580066  0.20087739  0.01748468     1.58000
H299        H  0.26962047  0.32543579  0.97048080    -0.06800
C300        C  0.20083573  0.21205459  0.93113463     0.92400
O301        O  0.15669712  0.14592719  0.97727928    -0.83000
C302        C  0.14158801  0.13508831  0.99256037     0.92400
O303        O  0.33666952  0.31113509  0.95327488    -0.83000
Mg304      Mg  0.29124402  0.31260880  0.02590462     1.58200
O305        O  0.18844214  0.19497956  0.94553560    -0.81400
O306        O  0.27118598  0.26367809  0.06860121    -0.83100
O307        O  0.01937218  0.27660465  0.03213421    -0.88600
C308        C  0.46202282  0.18586075  0.01801269     0.87400
Mg309      Mg  0.00966963  0.31271224  0.02576563     1.58100
O310        O  0.03207028  0.22255942  0.99192777    -0.88400
O311        O  0.05466279  0.26293550  0.02939581    -0.75700
C312        C  0.98167833  0.29487627  0.93511093     0.92400
O313        O  0.44532724  0.23978661  0.02949977    -0.75500
O314        O  0.97348482  0.30328475  0.94998315    -0.83000
Mg315      Mg  0.48281841  0.23608277  0.04585995     1.58000
C316        C  0.02738389  0.21472783  0.93278606     0.92400
O317        O  0.51721111  0.23153075  0.06472862    -0.81300
H318        H  0.07838629  0.24754217  0.99097676    -0.06600
C319        C  0.45623297  0.21955380  0.96783358     0.87300
O320        O  0.04249333  0.32723545  0.00004160    -0.75800
O321        O  0.48632161  0.20819664  0.02361942    -0.88600
O322        O  0.02010279  0.19729089  0.94733145    -0.81400
C323        C  0.50519886  0.14221814  0.99979712     0.92500
C324        C  0.51962287  0.20762985  0.06620324     0.92300
Mg325      Mg  0.02108494  0.26748363  0.95634182     1.58000
O326        O  0.99067251  0.27530360  0.93580060    -0.81300
O327        O  0.05721506  0.26310081  0.97367509    -0.75500
O328        O  0.51140089  0.15916681  0.01438920    -0.81400
O329        O  0.47845694  0.26455753  0.06925747    -0.83100
O330        O  0.98881976  0.34104173  0.98708270    -0.81400
C331        C  0.05669955  0.24413830  0.98566271     0.86800
O332        O  0.01570986  0.29440828  0.97806746    -0.88500
O333        O  0.48375782  0.22654897  0.96854907    -0.88700
O334        O  0.44745648  0.23855292  0.97227981    -0.75700
Mg335      Mg  0.03005524  0.21095607  0.02133252     1.58000
O336        O  0.50111977  0.15074403  0.98369721    -0.83100
H337        H  0.06441837  0.30619926  0.03648879    -0.06800
O338        O  0.47052088  0.27880370  0.01011760    -0.88400
H339        H  0.42418898  0.25530604  0.01209757    -0.06600
H340        H  0.05884922  0.32934612  0.97338305    -0.06800
C341        C  0.44586691  0.25821639  0.01707264     0.86700
C342        C  0.04673546  0.28296867  0.03288071     0.87300
C343        C  0.03966202  0.31754308  0.98324081     0.87400
H344        H  0.43903862  0.19637199  0.96377846    -0.06800
O345        O  0.45947163  0.17638529  0.00113710    -0.75800
Mg346      Mg  0.47125889  0.28983057  0.98065722     1.58000
H347        H  0.44233969  0.17449837  0.02757104    -0.06800
C348        C  0.47729080  0.28927152  0.06936448     0.92400
O349        O  0.99998150  0.35087180  0.01761894    -0.83000
C350        C  0.99528059  0.35848965  0.00140353     0.92400
O351        O  0.52525908  0.19619933  0.05174738    -0.83000
Mg352      Mg  0.49279328  0.19004892  0.97552306     1.58200
O353        O  0.48297839  0.30556656  0.05443766    -0.81400
O354        O  0.02677182  0.23966875  0.93328762    -0.83100
O355        O  0.19043572  0.06921059  0.63389080    -0.88600
C356        C  0.12707369  0.09607137  0.64698790     0.87400
Mg357      Mg  0.18204522  0.02353689  0.64048641     1.58100
O358        O  0.19434291  0.12900536  0.67515833    -0.88400
O359        O  0.22395316  0.11817189  0.63778091    -0.75700
C360        C  0.13791231  0.00463882  0.73105113     0.92400
O361        O  0.11641400  0.02631041  0.63470993    -0.75500
O362        O  0.13518190  0.48860359  0.71653766    -0.83000
Mg363      Mg  0.15363074  0.07009093  0.61925053     1.58000
C364        C  0.17710743  0.12884903  0.73388377     0.92400
O365        O  0.18506265  0.11151234  0.60055837    -0.81300
H366        H  0.24030253  0.15470114  0.67823682    -0.06600
C367        C  0.11784456  0.05365575  0.69716175     0.87300
O368        O  0.21192174  0.04216884  0.66714519    -0.75800
O369        O  0.15238892  0.09998466  0.64144486    -0.88600
O370        O  0.17893861  0.14125297  0.71798798    -0.81400
C371        C  0.16962114  0.18348078  0.66945920     0.92500
C372        C  0.19505465  0.14035806  0.60031635     0.92300
Mg373      Mg  0.18188487  0.07423881  0.71149186     1.58000
O374        O  0.15011804  0.03373785  0.73011883    -0.81300
O375        O  0.21919187  0.11756716  0.69573077    -0.75500
O376        O  0.17723752  0.17474094  0.65433814    -0.81400
O377        O  0.15849911  0.04082909  0.59579285    -0.83100
O378        O  0.15714385  0.46930074  0.67735190    -0.81400
C379        C  0.21875669  0.13481159  0.68283247     0.86800
O380        O  0.18227365  0.04370342  0.68965680    -0.88500
O381        O  0.14506211  0.07493651  0.69681075    -0.88700
O382        O  0.11063629  0.02633635  0.69274986    -0.75700
Mg383      Mg  0.19643354  0.14219925  0.64615285     1.58000
O384        O  0.16162900  0.16757763  0.68445083    -0.83100
H385        H  0.23597308  0.08669432  0.62966933    -0.06800
O386        O  0.14072404  0.01492506  0.65569957    -0.88400
H387        H  0.09492594  0.98900135  0.65204559    -0.06600
H388        H  0.22643771  0.05565948  0.69394847    -0.06800
C389        C  0.11653683  0.00903760  0.64770232     0.86700
C390        C  0.21743713  0.09096500  0.63348910     0.87300
C391        C  0.20749504  0.04732625  0.68415206     0.87400
H392        H  0.09968609  0.05854427  0.70086569    -0.06800
O393        O  0.12268492  0.10125672  0.66400049    -0.75800
Mg394      Mg  0.13768989  0.00185197  0.68501977     1.58000
H395        H  0.10807635  0.08756273  0.63722382    -0.06800
C396        C  0.15888476  0.01569681  0.59636853     0.92400
O397        O  0.17263375  0.97527035  0.64745068    -0.83000
C398        C  0.16438264  0.45989129  0.66235857     0.92400
O399        O  0.19790992  0.15559508  0.61533369    -0.83000
Mg400      Mg  0.15303250  0.12004077  0.69050413     1.58200
O401        O  0.15709505  0.00286757  0.61219474    -0.81400
O402        O  0.17772921  0.10386977  0.73487995    -0.83100
C403        C  0.12150572  0.17899673  0.86872022    -0.11200
C404        C  0.09733130  0.17941975  0.87839229    -0.05000
C405        C  0.07258121  0.17845427  0.86905997    -0.11100
C406        C  0.07126054  0.17580592  0.84911925     0.09800
C407        C  0.09522789  0.17395592  0.83908781    -0.02900
C408        C  0.12067253  0.17591688  0.84895746     0.09600
C409        C  0.14439121  0.17457016  0.83890587    -0.12900
C410        C  0.14282429  0.17048449  0.81941216    -0.12900
C411        C  0.11773785  0.16811084  0.80929149     0.09600
C412        C  0.09401064  0.17053595  0.81916914    -0.02900
C413        C  0.04684752  0.17476564  0.83897444    -0.13100
C414        C  0.04571341  0.17155565  0.81934865    -0.13100
C415        C  0.06886488  0.16908831  0.80922611     0.09800
C416        C  0.06758977  0.16507273  0.78940681    -0.11100
C417        C  0.09103658  0.16255335  0.77993539    -0.05000
C418        C  0.11570325  0.16337441  0.78953151    -0.11200
H419        H  0.16407226  0.17610279  0.84613446     0.07100
H420        H  0.16147744  0.16922428  0.81229639     0.07100
H421        H  0.02836477  0.17621126  0.84619652     0.07200
H422        H  0.02641922  0.17085624  0.81213615     0.07200
H423        H  0.09881915  0.18250635  0.89360597     0.03700
H424        H  0.08928964  0.15846573  0.76483762     0.03700
C425        C  0.09269475  0.43286433  0.87871265    -0.11200
C426        C  0.06821220  0.40781352  0.88821742    -0.05000
C427        C  0.04215321  0.38525365  0.87874905    -0.11100
C428        C  0.04026195  0.38765420  0.85905793     0.09800
C429        C  0.06482524  0.41293248  0.84913485    -0.02900
C430        C  0.09116709  0.43568133  0.85892854     0.09600
C431        C  0.11509626  0.46043712  0.84868308    -0.12900
C432        C  0.11342064  0.46262972  0.82912266    -0.12900
C433        C  0.08746473  0.44050218  0.81923223     0.09600
C434        C  0.06296385  0.41539415  0.82934630    -0.02900
C435        C  0.01426588  0.36561751  0.84909170    -0.13100
C436        C  0.01263082  0.36784560  0.82967782    -0.13100
C437        C  0.03665644  0.39248912  0.81962647     0.09800
C438        C  0.03495930  0.39513005  0.80003353    -0.11100
C439        C  0.05847142  0.42018600  0.79041679    -0.05000
C440        C  0.08480292  0.44258234  0.79949591    -0.11200
H441        H  0.13535181  0.47827964  0.85574262     0.07100
H442        H  0.13238974  0.48197916  0.82178832     0.07100
H443        H  0.99481509  0.34647441  0.85621670     0.07200
H444        H  0.99217431  0.35030336  0.82259894     0.07200
H445        H  0.06975042  0.40548789  0.90331256     0.03700
H446        H  0.05670954  0.42170587  0.77523706     0.03700
O447        O  0.39914563  0.06937731  0.70278095    -0.88600
C448        C  0.48300062  0.09261352  0.67809679     0.87400
Mg449      Mg  0.35760743  0.02563204  0.69831388     1.58100
O450        O  0.44741401  0.13198479  0.65940576    -0.88400
O451        O  0.41765173  0.11920848  0.70096213    -0.75700
C452        C  0.35238864  0.01251936  0.60516572     0.92400
O453        O  0.42574752  0.02457734  0.69202019    -0.75500
O454        O  0.34456453  0.99431206  0.61932279    -0.83000
Mg455      Mg  0.43955012  0.06730196  0.71048022     1.58000
C456        C  0.44117712  0.13612666  0.60108719     0.92400
O457        O  0.45574926  0.10775788  0.73130005    -0.81300
H458        H  0.42968374  0.15949800  0.66325658    -0.06600
C459        C  0.43307771  0.05532090  0.63035070     0.87300
O460        O  0.34029341  0.04666358  0.67643491    -0.75800
O461        O  0.46457302  0.09769396  0.68694710    -0.88600
O462        O  0.46178604  0.14287969  0.61354188    -0.81400
C463        C  0.02973186  0.17946865  0.65764580     0.92500
C464        C  0.47865833  0.13532958  0.73133099     0.92300
Mg465      Mg  0.38918218  0.08033437  0.62771547     1.58000
O466        O  0.37025995  0.04135625  0.60698913    -0.81300
O467        O  0.40405224  0.12258318  0.64649065    -0.75500
O468        O  0.01595580  0.17079343  0.67368179    -0.81400
O469        O  0.41378664  0.03481730  0.73537669    -0.83100
O470        O  0.31687401  0.47293564  0.66212333    -0.81400
C471        C  0.42758415  0.13919576  0.65648484     0.86800
O472        O  0.36479083  0.04841541  0.65035305    -0.88500
O473        O  0.42982737  0.07755554  0.63411706    -0.88700
O474        O  0.41309589  0.02813632  0.63542692    -0.75700
Mg475      Mg  0.46649385  0.14149707  0.68703575     1.58000
O476        O  0.01727552  0.16540579  0.64244660    -0.83100
H477        H  0.37562889  0.08914993  0.71262893    -0.06800
O478        O  0.38363375  0.01540079  0.67740436    -0.88400
H479        H  0.40183550  0.98809916  0.67456634    -0.06600
H480        H  0.33289498  0.06127178  0.65146299    -0.06800
C481        C  0.40329895  0.00826340  0.68113792     0.86700
C482        C  0.39654230  0.09222511  0.70584727     0.87300
C483        C  0.34528935  0.05218532  0.65892293     0.87400
H484        H  0.45393955  0.05925006  0.62306189    -0.06800
O485        O  0.48791458  0.09814801  0.66054670    -0.75800
Mg486      Mg  0.36484517  0.00505077  0.64940806     1.58000
H487        H  0.49466442  0.08256174  0.68536656    -0.06800
C488        C  0.38697562  0.01073098  0.73641948     0.92400
O489        O  0.31422870  0.47880573  0.69326462    -0.83000
C490        C  0.30287166  0.46405504  0.67807658     0.92400
O491        O  0.48802409  0.15114840  0.71619531    -0.83000
Mg492      Mg  0.47197168  0.12026739  0.63834319     1.58200
O493        O  0.36776010  0.00298964  0.72303061    -0.81400
O494        O  0.41401035  0.11292755  0.60303378    -0.83100
O495        O  0.40899952  0.33768309  0.69859603    -0.88600
C496        C  0.43497892  0.27317083  0.68611334     0.87400
Mg497      Mg  0.36628347  0.33488790  0.69072830     1.58100
O498        O  0.47526000  0.34228002  0.65998105    -0.88400
O499        O  0.45909480  0.36954559  0.69618963    -0.75700
C500        C  0.35904768  0.30150779  0.60063157     0.92400
O501        O  0.36370214  0.26388210  0.69394246    -0.75500
O502        O  0.34155293  0.29716406  0.61483991    -0.83000
Mg503      Mg  0.40546970  0.29710238  0.71150317     1.58000
C504        C  0.48060683  0.33322537  0.60060768     0.92400
O505        O  0.44289472  0.32493121  0.73230859    -0.81300
H506        H  0.50350600  0.38798717  0.65877311    -0.06600
C507        C  0.39923050  0.27105396  0.63561159     0.87300
O508        O  0.39013603  0.36664440  0.66533830    -0.75800
O509        O  0.43824088  0.29814734  0.69118000    -0.88600
O510        O  0.48970337  0.32613466  0.61555365    -0.81400
C511        C  0.02323532  0.31170050  0.67078741     0.92500
C512        C  0.47170169  0.33614132  0.73461959     0.92300
Mg513      Mg  0.42558892  0.33789548  0.62321314     1.58000
O514        O  0.38762558  0.31056451  0.60219945    -0.81300
O515        O  0.46746435  0.37133516  0.64071325    -0.75500
O516        O  0.01130584  0.31699305  0.68528014    -0.81400
O517        O  0.37351834  0.29775692  0.73337342    -0.83100
O518        O  0.31915343  0.31799255  0.65082731    -0.81400
C519        C  0.48325064  0.36789762  0.65328635     0.86800
O520        O  0.39336547  0.33715492  0.64394230    -0.88500
O521        O  0.42232035  0.29727368  0.63601339    -0.88700
O522        O  0.37207946  0.26613323  0.63927359    -0.75700
Mg523      Mg  0.48223840  0.34090262  0.68966413     1.58000
O524        O  0.01135567  0.30729286  0.65442824    -0.83100
H525        H  0.42813226  0.38296597  0.70313063    -0.06800
O526        O  0.35546122  0.29341576  0.67526457    -0.88400
H527        H  0.32721168  0.24769112  0.67627053    -0.06600
H528        H  0.40790513  0.38160996  0.63905536    -0.06800
C529        C  0.34758059  0.26766627  0.68175740     0.86700
C530        C  0.43173350  0.36399962  0.69967030     0.87300
C531        C  0.39737596  0.36246950  0.64885136     0.87400
H532        H  0.40230260  0.25165796  0.63248324    -0.06800
O533        O  0.44265934  0.26955416  0.66959778    -0.75800
Mg534      Mg  0.34896036  0.29511037  0.64576546     1.58000
H535        H  0.42483244  0.25386502  0.69579989    -0.06800
C536        C  0.35177052  0.30380872  0.73386845     0.92400
O537        O  0.32133501  0.33185225  0.68102928    -0.83000
C538        C  0.30911903  0.32679901  0.66474700     0.92400
O539        O  0.98894912  0.33796444  0.72169099    -0.83000
Mg540      Mg  0.46592005  0.30171016  0.64414621     1.58200
O541        O  0.34237587  0.31062298  0.71897360    -0.81400
O542        O  0.45794929  0.33796850  0.60108501    -0.83100
C543        C  0.31111426  0.40465398  0.87277136    -0.11200
C544        C  0.31393441  0.38259088  0.88304268    -0.05000
C545        C  0.32211783  0.36262112  0.87444261    -0.11100
C546        C  0.32574042  0.36324687  0.85462905     0.09800
C547        C  0.32541560  0.38710593  0.84413193    -0.02900
C548        C  0.31935297  0.40877629  0.85333016     0.09600
C549        C  0.32181880  0.43365023  0.84284765    -0.12900
C550        C  0.33119152  0.43774040  0.82382611    -0.12900
C551        C  0.33569582  0.41563268  0.81429153     0.09600
C552        C  0.33132717  0.38933333  0.82440530    -0.02900
C553        C  0.32953013  0.34079079  0.84504623    -0.13100
C554        C  0.33161932  0.34097556  0.82541817    -0.13100
C555        C  0.33325976  0.36539261  0.81488322     0.09800
C556        C  0.33720620  0.36691029  0.79507599    -0.11100
C557        C  0.34364587  0.39381443  0.78556751    -0.05000
C558        C  0.34461682  0.41880164  0.79496220    -0.11200
H559        H  0.31758275  0.45067764  0.84947097     0.07100
H560        H  0.33397496  0.45783723  0.81647350     0.07100
H561        H  0.32992936  0.32234741  0.85261437     0.07200
H562        H  0.33310723  0.32241471  0.81860744     0.07200
H563        H  0.30934003  0.38070890  0.89814105     0.03700
H564        H  0.34895397  0.39571320  0.77056027     0.03700
C565        C  0.99709701  0.22009792  0.45943313    -0.11200
C566        C  0.00085068  0.24526881  0.44887503    -0.05000
C567        C  0.00161183  0.27086359  0.45738436    -0.11100
C568        C  0.99921035  0.27174365  0.47733838     0.09800
C569        C  0.99359643  0.24564046  0.48817529    -0.02900
C570        C  0.99147782  0.21929803  0.47912154     0.09600
C571        C  0.98427973  0.19314342  0.49000397    -0.12900
C572        C  0.48130861  0.19397931  0.50938509    -0.12900
C573        C  0.48466161  0.22020392  0.51875864     0.09600
C574        C  0.49193574  0.24698607  0.50809499    -0.02900
C575        C  0.00264729  0.29802231  0.48676183    -0.13100
C576        C  0.50246331  0.29987428  0.50643324    -0.13100
C577        C  0.49639574  0.27413822  0.51738361     0.09800
C578        C  0.49459672  0.27453967  0.53738801    -0.11100
C579        C  0.48692670  0.24775673  0.54747385    -0.05000
C580        C  0.48137851  0.22066301  0.53858131    -0.11200
H581        H  0.98205199  0.17259806  0.48345535     0.07100
H582        H  0.47587420  0.17331294  0.51716426     0.07100
H583        H  0.00682035  0.31826254  0.47896681     0.07200
H584        H  0.50610849  0.32091982  0.51303415     0.07200
H585        H  0.00463990  0.24555625  0.43374425     0.03700
H586        H  0.48439767  0.24772454  0.56272010     0.03700
C587        C  0.27344760  0.28402147  0.45980671    -0.11200
C588        C  0.24952636  0.26054607  0.44969066    -0.05000
C589        C  0.22775859  0.23289866  0.45818765    -0.11100
C590        C  0.22974326  0.22828617  0.47761964     0.09800
C591        C  0.25489383  0.25165790  0.48793388    -0.02900
C592        C  0.27699298  0.27963191  0.47895477     0.09600
C593        C  0.30206488  0.30223881  0.48922858    -0.12900
C594        C  0.30563954  0.29737409  0.50808290    -0.12900
C595        C  0.28362684  0.27025488  0.51733361     0.09600
C596        C  0.25778510  0.24728579  0.50729353    -0.02900
C597        C  0.20761629  0.20123940  0.48696340    -0.13100
C598        C  0.21006534  0.19723602  0.50623483    -0.13100
C599        C  0.23497334  0.21995227  0.51659534     0.09800
C600        C  0.23800347  0.21649956  0.53606682    -0.11100
C601        C  0.26357512  0.23918028  0.54557521    -0.05000
C602        C  0.28643686  0.26546463  0.53650633    -0.11200
H603        H  0.31932387  0.32362491  0.48264758     0.07100
H604        H  0.32544977  0.31524162  0.51549138     0.07100
H605        H  0.18824099  0.18308747  0.47941572     0.07200
H606        H  0.19244927  0.17620189  0.51297689     0.07200
H607        H  0.24710528  0.26438507  0.43489744     0.03700
H608        H  0.26615524  0.23593336  0.56044905     0.03700
C609        C  0.23538324  0.49062751  0.46139185    -0.11200
C610        C  0.26317770  0.49598142  0.45308801    -0.05000
C611        C  0.28818952  0.50001682  0.46370522    -0.11100
C612        C  0.28506272  0.49769215  0.48362260     0.09800
C613        C  0.25710251  0.49282027  0.49246495    -0.02900
C614        C  0.23226913  0.48962546  0.48130211     0.09600
C615        C  0.20521475  0.48560727  0.49032127    -0.12900
C616        C  0.20147643  0.98258947  0.50879795    -0.12900
C617        C  0.22531727  0.98555254  0.52050378     0.09600
C618        C  0.25292553  0.98900516  0.51192144    -0.02900
C619        C  0.30871952  0.49944058  0.49487004    -0.13100
C620        C  0.30404653  0.99435926  0.51439809    -0.13100
C621        C  0.27673048  0.99020331  0.52323811     0.09800
C622        C  0.27255216  0.98725536  0.54308423    -0.11100
C623        C  0.24601679  0.98549347  0.55129193    -0.05000
C624        C  0.22231658  0.98479069  0.54053357    -0.11200
H625        H  0.18596823  0.48327875  0.48219441     0.07100
H626        H  0.17985153  0.97907800  0.51475042     0.07100
H627        H  0.33029251  0.50321486  0.48863737     0.07200
H628        H  0.32234883  0.99443276  0.52237591     0.07200
H629        H  0.26505324  0.49603765  0.43780360     0.03700
H630        H  0.24433065  0.98574275  0.56655405     0.03700
O631        O  0.01104642  0.46024854  0.01586899    -0.88600
C632        C  0.05612606  0.02039738  0.97212018     0.87400
Mg633      Mg  0.46210868  0.42669852  0.01464325     1.58100
O634        O  0.03964536  0.05227199  0.01212370    -0.88400
O635        O  0.04319684  0.99737904  0.03327686    -0.75700
C636        C  0.39182059  0.50287344  0.98785551     0.92400
O637        O  0.99792720  0.44829163  0.97144797    -0.75500
O638        O  0.39008834  0.47690338  0.98538963    -0.83000
Mg639      Mg  0.03879140  0.46209549  0.99147637     1.58000
C640        C  0.00276462  0.11198194  0.00136409     0.92400
O641        O  0.08386064  0.47280970  0.00654082    -0.81300
H642        H  0.04347949  0.06245406  0.03960783    -0.06600
C643        C  0.47853826  0.02871482  0.96854213     0.87300
O644        O  0.44876532  0.45780092  0.03134974    -0.75800
O645        O  0.05339970  0.00999170  0.98821783    -0.88600
O646        O  0.02676518  0.10990991  0.99769008    -0.81400
C647        C  0.11191576  0.10629725  0.99225772     0.92500
C648        C  0.10849360  0.99592911  0.01058916     0.92300
Mg649      Mg  0.46117995  0.03758382  0.00859216     1.58000
O650        O  0.41724180  0.02715994  0.99266610    -0.81300
O651        O  0.50173993  0.05098428  0.02881266    -0.75500
O652        O  0.11046276  0.08163297  0.99802435    -0.81400
O653        O  0.02352130  0.41190556  0.99570021    -0.83100
O654        O  0.38853772  0.41734571  0.00203902    -0.81400
C655        C  0.02912771  0.05567580  0.02722717     0.86800
O656        O  0.44580371  0.48918073  0.01137942    -0.88500
O657        O  0.48879027  0.03931358  0.98426605    -0.88700
O658        O  0.45703268  0.50114063  0.96647805    -0.75700
Mg659      Mg  0.07399780  0.03750777  0.01328547     1.58000
O660        O  0.08809307  0.10772627  0.98788034    -0.83100
H661        H  0.01155874  0.45537335  0.04380249    -0.06800
O662        O  0.45983448  0.44652027  0.98803142    -0.88400
H663        H  0.45592838  0.43568225  0.96065108    -0.06600
H664        H  0.43580706  0.48879379  0.03881131    -0.06800
C665        C  0.47037376  0.44293712  0.97299719     0.86700
C666        C  0.02161763  0.47019934  0.03161877     0.87300
C667        C  0.44281890  0.47892907  0.02753763     0.87400
H668        H  0.48878996  0.04314075  0.95621992    -0.06800
O669        O  0.05019190  0.04162052  0.96855828    -0.75800
Mg670      Mg  0.42571735  0.46120659  0.98643159     1.58000
H671        H  0.06291239  0.01060732  0.96068774    -0.06800
C672        C  0.49745790  0.38832522  0.99958405     0.92400
O673        O  0.41078510  0.39117414  0.01219683    -0.83000
C674        C  0.38688629  0.39258408  0.00783989     0.92400
O675        O  0.11026384  0.02187720  0.01349345    -0.83000
Mg676      Mg  0.03722622  0.07272051  0.98562639     1.58200
O677        O  0.47317234  0.38999986  0.00296576    -0.81400
O678        O  0.47655853  0.08830543  0.00488998    -0.83100
O679        O  0.34742962  0.14034136  0.34756222    -0.88600
C680        C  0.39053235  0.20271573  0.30408021     0.87400
Mg681      Mg  0.29866232  0.10563620  0.34737624     1.58100
O682        O  0.37388710  0.23303407  0.34476616    -0.88400
O683        O  0.37917038  0.17889675  0.36520888    -0.75700
C684        C  0.22322483  0.17681383  0.32378341     0.92400
O685        O  0.33181113  0.12824588  0.30295358    -0.75500
O686        O  0.22274285  0.15186351  0.31985664    -0.83000
Mg687      Mg  0.37394007  0.14394696  0.32184496     1.58000
C688        C  0.33476350  0.28945453  0.33632293     0.92400
O689        O  0.42141200  0.15830791  0.33458098    -0.81300
H690        H  0.37967764  0.24420268  0.37209425    -0.06600
C691        C  0.31103636  0.20776112  0.30233290     0.87300
O692        O  0.28492606  0.13551186  0.36488561    -0.75800
O693        O  0.38724813  0.19187316  0.32007392    -0.88600
O694        O  0.35889738  0.28855669  0.33126947    -0.81400
C695        C  0.44640977  0.28838402  0.32506581     0.92500
C696        C  0.44577531  0.18250501  0.34011361     0.92300
Mg697      Mg  0.29459981  0.21458439  0.34331818     1.58000
O698        O  0.24769098  0.20087800  0.32944146    -0.81300
O699        O  0.33632680  0.22961326  0.36256608    -0.75500
O700        O  0.44404832  0.26318407  0.33032082    -0.81400
O701        O  0.35994406  0.09328622  0.32495564    -0.83100
O702        O  0.22486460  0.09447996  0.33519944    -0.81400
C703        C  0.36424638  0.23632354  0.36020155     0.86800
O704        O  0.28093780  0.16660646  0.34526164    -0.88500
O705        O  0.32189509  0.21864037  0.31790663    -0.88700
O706        O  0.29010184  0.17971422  0.30042329    -0.75700
Mg707      Mg  0.40838933  0.21943407  0.34527252     1.58000
O708        O  0.42283100  0.29036354  0.32050022    -0.83100
H709        H  0.34942871  0.13608584  0.37543163    -0.06800
O710        O  0.29481930  0.12533816  0.32101323    -0.88400
H711        H  0.28814616  0.11317434  0.29385716    -0.06600
H712        H  0.27116862  0.16570515  0.37276646    -0.06800
C713        C  0.30395903  0.12151347  0.30556081     0.86700
C714        C  0.35844567  0.15085718  0.36315046     0.87300
C715        C  0.27833002  0.15623435  0.36133994     0.87400
H716        H  0.32024709  0.22224895  0.28994581    -0.06800
O717        O  0.38467092  0.22398188  0.30065851    -0.75800
Mg718      Mg  0.26024035  0.13886165  0.32018206     1.58000
H719        H  0.39777280  0.19332557  0.29265011    -0.06800
C720        C  0.33472074  0.06924166  0.32999133     0.92400
O721        O  0.24726385  0.06879525  0.34590822    -0.83000
C722        C  0.22333878  0.06983693  0.34102502     0.92400
O723        O  0.44580480  0.20687339  0.34490343    -0.83000
Mg724      Mg  0.37091569  0.25352021  0.31855265     1.58200
O725        O  0.31071101  0.07018672  0.33528973    -0.81400
O726        O  0.30913625  0.26531538  0.34062088    -0.83100
O727        O  0.15049008  0.35843165  0.68158052    -0.88600
C728        C  0.11363931  0.29700978  0.63748853     0.87400
Mg729      Mg  0.19836965  0.39498973  0.68227392     1.58100
O730        O  0.12820646  0.26656390  0.67864642    -0.88400
O731        O  0.11741947  0.31874147  0.69837641    -0.75700
C732        C  0.28061502  0.32821534  0.66253827     0.92400
O733        O  0.17024090  0.37166238  0.63765441    -0.75500
O734        O  0.28207810  0.35420568  0.66152967    -0.83000
Mg735      Mg  0.12596657  0.35458291  0.65584559     1.58000
C736        C  0.17070025  0.21322820  0.66969917     0.92400
O737        O  0.07772086  0.33858910  0.66933522    -0.81300
H738        H  0.12006055  0.25411295  0.70581063    -0.06600
C739        C  0.19664979  0.29672880  0.63793400     0.87300
O740        O  0.21155470  0.36566305  0.70068836    -0.75800
O741        O  0.11469416  0.30691894  0.65357540    -0.88600
O742        O  0.14634491  0.21365318  0.66539147    -0.81400
C743        C  0.05982948  0.20832758  0.65712726     0.92500
C744        C  0.05295636  0.31285567  0.67256032     0.92300
Mg745      Mg  0.20806461  0.28792781  0.67818487     1.58000
O746        O  0.25478917  0.30285806  0.66290157    -0.81300
O747        O  0.16458022  0.27039739  0.69709452    -0.75500
O748        O  0.06023930  0.23227654  0.66342576    -0.81400
O749        O  0.13801478  0.40531770  0.65884862    -0.83100
O750        O  0.27414765  0.41059696  0.67350400    -0.81400
C751        C  0.13664491  0.26299067  0.69423295     0.86800
O752        O  0.21934125  0.33571298  0.68169948    -0.88500
O753        O  0.18302239  0.28513511  0.65295857    -0.88700
O754        O  0.21817664  0.32478199  0.63698826    -0.75700
Mg755      Mg  0.09203773  0.27779897  0.67811876     1.58000
O756        O  0.08447605  0.20839973  0.65228175    -0.83100
H757        H  0.14463991  0.36148391  0.70929216    -0.06800
O758        O  0.20674540  0.37653386  0.65637672    -0.88400
H759        H  0.21474883  0.38765247  0.62902242    -0.06600
H760        H  0.22501431  0.33586151  0.70957080    -0.06800
C761        C  0.19820656  0.37926666  0.64062938     0.86700
C762        C  0.13774445  0.34710238  0.69684921     0.87300
C763        C  0.21914469  0.34534259  0.69773776     0.87400
H764        H  0.18994291  0.28281668  0.62529392    -0.06800
O765        O  0.12120596  0.27685436  0.63410368    -0.75800
Mg766      Mg  0.24323544  0.36534420  0.65783481     1.58000
H767        H  0.10691099  0.30630162  0.62596269    -0.06800
C768        C  0.16323881  0.42995642  0.66287687     0.92400
O769        O  0.24835820  0.43427538  0.68224754    -0.83000
C770        C  0.27348467  0.43464094  0.67857082     0.92400
O771        O  0.05306383  0.28805460  0.67570731    -0.83000
Mg772      Mg  0.13502280  0.24808456  0.65219056     1.58200
O773        O  0.18714682  0.42946812  0.66830947    -0.81400
O774        O  0.19599536  0.23768565  0.67375475    -0.83100
C775        C  0.34171876  0.30891101  0.75270181    -0.06400
C776        C  0.36462554  0.32142702  0.76672970    -0.17600
C777        C  0.36253858  0.33846527  0.78179130     0.10800
C778        C  0.33640292  0.34196317  0.78340811    -0.06300
C779        C  0.31174679  0.32621888  0.77085691    -0.17600
C780        C  0.31403025  0.30956185  0.75560764     0.10800
S781        S  0.39509752  0.35909094  0.79730843    -0.32600
S782        S  0.28165816  0.29107938  0.73986466    -0.32600
H783        H  0.28829701  0.26831806  0.73369610     0.28800
H784        H  0.41186313  0.34501514  0.79108460     0.28800
H785        H  0.38598123  0.32107699  0.76476754     0.19400
H786        H  0.29145161  0.32865967  0.77222899     0.19400
C787        C  0.34612267  0.29788979  0.58172654    -0.06400
C788        C  0.32688881  0.31023327  0.57852903    -0.17600
C789        C  0.31067536  0.30445272  0.56176940     0.10800
C790        C  0.31338106  0.28557490  0.54804117    -0.06300
C791        C  0.33510812  0.27602592  0.55034427    -0.17600
C792        C  0.35146259  0.28187145  0.56710246     0.10800
S793        S  0.28378908  0.31824115  0.55968921    -0.32600
S794        S  0.37439299  0.26381781  0.57017845    -0.32600
H795        H  0.40161564  0.29173480  0.57387683     0.28800
H796        H  0.28232897  0.31678711  0.53991061     0.28800
H797        H  0.32344255  0.32338354  0.58949447     0.19400
H798        H  0.33656968  0.26082627  0.53998903     0.19400
C799        C  0.49278189  0.33090308  0.58159726    -0.06400
C800        C  0.47280525  0.32409235  0.56615898    -0.17600
C801        C  0.47465391  0.30826428  0.55027374     0.10800
C802        C  0.49844284  0.30103920  0.54903125    -0.06300
C803        C  0.02081128  0.31193390  0.56296669    -0.17600
C804        C  0.51906442  0.32755291  0.57906850     0.10800
S805        S  0.44367220  0.29309079  0.53335112    -0.32600
S806        S  0.04846340  0.33904874  0.59649213    -0.32600
H807        H  0.04491073  0.36343779  0.60338875     0.28800
H808        H  0.42954626  0.30971202  0.53970429     0.28800
H809        H  0.45334438  0.32778168  0.56742923     0.19400
H810        H  0.03951714  0.30695486  0.56187725     0.19400
C811        C  0.37685429  0.49125135  0.75389300    -0.06400
C812        C  0.39810968  0.48547605  0.76307305    -0.17600
C813        C  0.38862045  0.46408644  0.77791922     0.10800
C814        C  0.35708714  0.44781789  0.78384090    -0.06300
C815        C  0.33626581  0.45499766  0.77552194    -0.17600
C816        C  0.34585997  0.47683746  0.76093683     0.10800
S817        S  0.41736774  0.45672355  0.78780376    -0.32600
S818        S  0.31699702  0.98309338  0.75174440    -0.32600
H819        H  0.33727939  0.01479668  0.74854747     0.28800
H820        H  0.40263818  0.44644282  0.80549253     0.28800
H821        H  0.42198127  0.49662403  0.75810651     0.19400
H822        H  0.31207694  0.44259539  0.77989786     0.19400
C823        C  0.33752580  0.00152587  0.58644311    -0.06400
C824        C  0.30973151  0.97303415  0.58528299    -0.17600
C825        C  0.28965524  0.96631616  0.57006172     0.10800
C826        C  0.29654265  0.98911600  0.55616744    -0.06300
C827        C  0.32544308  0.01631497  0.55648004    -0.17600
C828        C  0.34662067  0.02190601  0.57072338     0.10800
S829        S  0.25584637  0.42949428  0.56908306    -0.32600
S830        S  0.38441407  0.05601991  0.56803294    -0.32600
H831        H  0.40016336  0.04326762  0.57722086     0.28800
H832        H  0.25140589  0.42956313  0.54954110     0.28800
H833        H  0.30266997  0.95657450  0.59675236     0.19400
H834        H  0.33133423  0.03379928  0.54576424     0.19400
C835        C  0.45017892  0.15517040  0.58353963    -0.06400
C836        C  0.48181009  0.17144112  0.57824172    -0.17600
C837        C  0.49235753  0.19049848  0.56229339     0.10800
C838        C  0.47099532  0.19351828  0.55106982    -0.06300
C839        C  0.43925867  0.17603738  0.55558832    -0.17600
C840        C  0.42863228  0.15725691  0.57172378     0.10800
S841        S  0.53362981  0.21210705  0.55775767    -0.32600
S842        S  0.38779627  0.13914648  0.57721992    -0.32600
H843        H  0.39232770  0.14810661  0.59628937     0.28800
H844        H  0.53183037  0.21625714  0.53833558     0.28800
H845        H  0.49872877  0.16977194  0.58677174     0.19400
H846        H  0.42286912  0.17904646  0.54733539     0.19400
C847        C  0.01049756  0.37164602  0.78819349    -0.06400
C848        C  0.01670276  0.35007506  0.77961072    -0.17600
C849        C  0.00264789  0.33593645  0.76268999     0.10800
C850        C  0.98190480  0.34351310  0.75433130    -0.06300
C851        C  0.97321726  0.36247423  0.76402172    -0.17600
C852        C  0.98757382  0.37690025  0.78077462     0.10800
S853        S  0.51587183  0.31268213  0.75047147    -0.32600
S854        S  0.97897250  0.40498349  0.79061360    -0.32600
H855        H  0.98767271  0.40324904  0.80912148     0.28800
H856        H  0.48721630  0.29388801  0.74173010     0.28800
H857        H  0.03459184  0.34631734  0.78524508     0.19400
H858        H  0.95684860  0.36791730  0.75779550     0.19400
C859        C  0.49660861  0.14729217  0.74911752    -0.06400
C860        C  0.49088116  0.12582257  0.76359499    -0.17600
C861        C  0.01272749  0.13226159  0.77787545     0.10800
C862        C  0.04105635  0.16054342  0.77788131    -0.06300
C863        C  0.04602282  0.18317234  0.76454355    -0.17600
C864        C  0.02448798  0.17730617  0.75034372     0.10800
S865        S  0.00375595  0.10149438  0.79436211    -0.32600
S866        S  0.03352265  0.20838783  0.73416690    -0.32600
H867        H  0.49918115  0.20005960  0.73347728     0.28800
H868        H  0.03394235  0.10627462  0.79536610     0.28800
H869        H  0.47061501  0.10290405  0.76311267     0.19400
H870        H  0.06753091  0.20515912  0.76471923     0.19400
C871        C  0.10855488  0.46596314  0.78667451    -0.06400
C872        C  0.12448565  0.45572503  0.77494212    -0.17600
C873        C  0.13416152  0.46754632  0.75667884     0.10800
C874        C  0.12905123  0.49108522  0.75014096    -0.06300
C875        C  0.11690673  0.00359573  0.76313420    -0.17600
C876        C  0.10556789  0.49106601  0.78067386     0.10800
S877        S  0.15247582  0.45148847  0.74230111    -0.32600
S878        S  0.08827219  0.00701246  0.79565045    -0.32600
H879        H  0.09292636  0.99678520  0.81298731     0.28800
H880        H  0.12771395  0.43801239  0.72959045     0.28800
H881        H  0.12631823  0.43603372  0.77925823     0.19400
H882        H  0.11438646  0.02293499  0.75893857     0.19400
C883        C  0.16977366  0.14152008  0.75111173    -0.06400
C884        C  0.15187750  0.12064958  0.76556571    -0.17600
C885        C  0.13523731  0.12767598  0.77885202     0.10800
C886        C  0.13718772  0.15674889  0.77829168    -0.06300
C887        C  0.15724794  0.17864702  0.76501958    -0.17600
C888        C  0.17380289  0.17159973  0.75167656     0.10800
S889        S  0.11009101  0.09755637  0.79515653    -0.32600
S890        S  0.19904341  0.20188097  0.73553266    -0.32600
H891        H  0.22059250  0.19178058  0.73362033     0.28800
H892        H  0.08624099  0.10462800  0.79575435     0.28800
H893        H  0.14841218  0.09753543  0.76553451     0.19400
H894        H  0.15923630  0.20115334  0.76465830     0.19400
C895        C  0.16513135  0.00247992  0.57878848    -0.06400
C896        C  0.16639870  0.97517878  0.58046282    -0.17600
C897        C  0.18127417  0.96660736  0.56679615     0.10800
C898        C  0.19685824  0.98632364  0.55125813    -0.06300
C899        C  0.19259529  0.01161680  0.54843442    -0.17600
C900        C  0.17587993  0.01905835  0.56150575     0.10800
S901        S  0.18096372  0.93094648  0.57055332    -0.32600
S902        S  0.17006392  0.05047756  0.55535547    -0.32600
H903        H  0.13947634  0.03593096  0.56255060     0.28800
H904        H  0.18649826  0.92669500  0.55157057     0.28800
H905        H  0.15709019  0.96102209  0.59300763     0.19400
H906        H  0.20359323  0.02662606  0.53639227     0.19400
C907        C  0.20207816  0.15620145  0.58186079    -0.06400
C908        C  0.19171007  0.17708797  0.57873688    -0.17600
C909        C  0.19879649  0.19383084  0.56184978     0.10800
C910        C  0.21667430  0.18974478  0.54782570    -0.06300
C911        C  0.22435227  0.16671125  0.55014496    -0.17600
C912        C  0.21769092  0.15023625  0.56708756     0.10800
S913        S  0.18799693  0.22288524  0.55890989    -0.32600
S914        S  0.23305596  0.12481243  0.56969515    -0.32600
H915        H  0.24204874  0.13279699  0.58854686     0.28800
H916        H  0.17207972  0.21778984  0.57625412     0.28800
H917        H  0.17881908  0.18091265  0.58977927     0.19400
H918        H  0.23891711  0.16421540  0.53963170     0.19400
C919        C  0.98574952  0.31200100  0.91717964    -0.06400
C920        C  0.98595254  0.34012487  0.91831750    -0.17600
C921        C  0.00172311  0.36341157  0.90487284     0.10800
C922        C  0.01814257  0.35891163  0.89004673    -0.06300
C923        C  0.01458403  0.32958196  0.88748532    -0.17600
C924        C  0.99759721  0.30577175  0.90047583     0.10800
S925        S  0.00201161  0.39920514  0.90813718    -0.32600
S926        S  0.49323521  0.26900940  0.89498209    -0.32600
H927        H  0.46470260  0.25199621  0.90468901     0.28800
H928        H  0.00695814  0.40792197  0.88901233     0.28800
H929        H  0.97601199  0.34517310  0.93053727     0.19400
H930        H  0.02611555  0.32556042  0.87567984     0.19400
C931        C  0.03554709  0.20505192  0.91460152    -0.06400
C932        C  0.02622076  0.17372811  0.91213282    -0.17600
C933        C  0.03408435  0.16326482  0.89578584     0.10800
C934        C  0.05174167  0.18432350  0.88130394    -0.06300
C935        C  0.05910207  0.21508092  0.88301862    -0.17600
C936        C  0.05167476  0.22588468  0.89948633     0.10800
S937        S  0.02349270  0.12322040  0.89487738    -0.32600
S938        S  0.06611344  0.26688176  0.90144351    -0.32600
H939        H  0.07972187  0.27551589  0.88335044     0.28800
H940        H  0.02584227  0.12189362  0.87513852     0.28800
H941        H  0.01326630  0.15721967  0.92321805     0.19400
H942        H  0.07355762  0.23130503  0.87217348     0.19400
C943        C  0.32750613  0.31029092  0.91981137    -0.06400
C944        C  0.30441246  0.29532523  0.90605475    -0.17600
C945        C  0.30327053  0.31096393  0.89011759     0.10800
C946        C  0.32649269  0.34193786  0.88723601    -0.06300
C947        C  0.35174462  0.35562042  0.89952684    -0.17600
C948        C  0.35265914  0.34021336  0.91575837     0.10800
S949        S  0.27041552  0.29078640  0.87481666    -0.32600
S950        S  0.38529838  0.35982656  0.93136878    -0.32600
H951        H  0.40299623  0.38612493  0.92006773     0.28800
H952        H  0.26654932  0.31605908  0.87100134     0.28800
H953        H  0.28534273  0.27207980  0.90848252     0.19400
H954        H  0.36969386  0.37934927  0.89705063     0.19400
C955        C  0.14836085  0.18564751  0.88029122    -0.06400
C956        C  0.16943321  0.21688147  0.88369851    -0.17600
C957        C  0.18641072  0.22621339  0.90030059     0.10800
C958        C  0.18402049  0.20366420  0.91318928    -0.06300
C959        C  0.16472653  0.17227598  0.90895200    -0.17600
C960        C  0.14670102  0.16308717  0.89274201     0.10800
S961        S  0.20668485  0.26697969  0.90542366    -0.32600
S962        S  0.11966212  0.12249687  0.88960077    -0.32600
H963        H  0.11665097  0.12401688  0.87000959     0.28800
H964        H  0.19666166  0.26329732  0.92438154     0.28800
H965        H  0.16964793  0.23424750  0.87456953     0.19400
H966        H  0.16286918  0.15478207  0.91863932     0.19400
C967        C  0.11954060  0.45450892  0.89036672    -0.06400
C968        C  0.11467323  0.47167779  0.90426440    -0.17600
C969        C  0.13596773  0.48650927  0.91884415     0.10800
C970        C  0.16316753  0.48423444  0.91953234    -0.06300
C971        C  0.16938722  0.46983194  0.90429297    -0.17600
C972        C  0.14772057  0.45440793  0.89010094     0.10800
S973        S  0.12696510  0.50690399  0.93662874    -0.32600
S974        S  0.15650281  0.43300997  0.87301831    -0.32600
H975        H  0.12612347  0.40789620  0.87152070     0.28800
H976        H  0.09699423  0.49823994  0.93049300     0.28800
H977        H  0.09312599  0.47193186  0.90421148     0.19400
H978        H  0.18520284  0.95647145  0.90809924     0.19400
C979        C  0.29889191  0.42184317  0.88348160    -0.06400
C980        C  0.31998395  0.45106787  0.89052745    -0.17600
C981        C  0.31155372  0.46417867  0.90528582     0.10800
C982        C  0.28167528  0.44722854  0.91384474    -0.06300
C983        C  0.25989854  0.41898107  0.90584405    -0.17600
C984        C  0.26811746  0.40626207  0.89074806     0.10800
S985        S  0.34334392  0.00428517  0.91383826    -0.32600
S986        S  0.23902028  0.36884615  0.88228643    -0.32600
H987        H  0.25212612  0.37201301  0.86415925     0.28800
H988        H  0.32183927  0.01398935  0.91758501     0.28800
H989        H  0.34359949  0.46314436  0.88507565     0.19400
H990        H  0.23673085  0.40605832  0.91190634     0.19400
C991        C  0.44513235  0.31292117  0.12030991    -0.06400
C992        C  0.46642618  0.33646289  0.10827879    -0.17600
C993        C  0.47863920  0.32980099  0.09214067     0.10800
C994        C  0.46859692  0.29867770  0.08741991    -0.06300
C995        C  0.44917544  0.27547582  0.10033678    -0.17600
C996        C  0.43754733  0.28225318  0.11662473     0.10800
S997        S  0.00633912  0.36239085  0.07782674    -0.32600
S998        S  0.41023934  0.25032368  0.13110546    -0.32600
H999        H  0.41564239  0.26750129  0.14776630     0.28800
H1000       H  0.02529043  0.34979143  0.07360339     0.28800
H1001       H  0.47208532  0.36003201  0.11084231     0.19400
H1002       H  0.44171966  0.25156169  0.09731884     0.19400
C1003       C  0.35059091  0.31696781  0.11783358    -0.06400
C1004       C  0.32028452  0.29194752  0.11920109    -0.17600
C1005       C  0.29951432  0.28575542  0.10465967     0.10800
C1006       C  0.31060405  0.30231926  0.08751882    -0.06300
C1007       C  0.33976966  0.32944593  0.08717115    -0.17600
C1008       C  0.35939201  0.33748163  0.10246119     0.10800
S1009       S  0.25942258  0.25774721  0.10922840    -0.32600
S1010       S  0.39645507  0.37274620  0.10093300    -0.32600
H1011       H  0.40077057  0.37692451  0.12052341     0.28800
H1012       H  0.24779610  0.27276341  0.09818700     0.28800
H1013       H  0.31300615  0.27688479  0.13141792     0.19400
H1014       H  0.34808171  0.34382405  0.07466141     0.19400
C1015       C  0.34770595  0.50053173  0.42030437    -0.06400
C1016       C  0.33754320  0.47799868  0.43468211    -0.17600
C1017       C  0.32060531  0.47876055  0.45038923     0.10800
C1018       C  0.31542075  0.50370077  0.45257023    -0.06300
C1019       C  0.33113774  0.02878831  0.44005923    -0.17600
C1020       C  0.34635463  0.52751532  0.42388793     0.10800
S1021       S  0.30126234  0.44520308  0.46552732    -0.32600
S1022       S  0.36416939  0.06071422  0.40833891    -0.32600
H1023       H  0.38743390  0.05540818  0.40105148     0.28800
H1024       H  0.31786167  0.43096429  0.45928054     0.28800
H1025       H  0.33907024  0.45747428  0.43247397     0.19400
H1026       H  0.32713474  0.04796164  0.44179160     0.19400
C1027       C  0.30876088  0.35302857  0.41851096    -0.06400
C1028       C  0.32289276  0.33526894  0.42102688    -0.17600
C1029       C  0.31513123  0.31542526  0.43638889     0.10800
C1030       C  0.29253388  0.31305541  0.44944678    -0.06300
C1031       C  0.28059387  0.33296975  0.44794257    -0.17600
C1032       C  0.28861272  0.35312400  0.43260851     0.10800
S1033       S  0.33167605  0.29078433  0.43722460    -0.32600
S1034       S  0.26879336  0.37452153  0.43029662    -0.32600
H1035       H  0.29576511  0.40254997  0.42588569     0.28800
H1036       H  0.32712953  0.28483717  0.45669486     0.28800
H1037       H  0.33880669  0.33555931  0.41035058     0.19400
H1038       H  0.26266533  0.33062260  0.45774698     0.19400
C1039       C  0.35509987  0.34373102  0.21934750    -0.06400
C1040       C  0.34744448  0.36679101  0.21747025    -0.17600
C1041       C  0.33102270  0.37214441  0.23178624     0.10800
C1042       C  0.32329027  0.35467823  0.24881388    -0.06300
C1043       C  0.32723209  0.32885873  0.24930528    -0.17600
C1044       C  0.34285413  0.32316380  0.23475568     0.10800
S1045       S  0.32305548  0.40318405  0.22840911    -0.32600
S1046       S  0.34935228  0.29119083  0.23754502    -0.32600
H1047       H  0.35351174  0.28764598  0.21821941     0.28800
H1048       H  0.33186813  0.40887142  0.20925281     0.28800
H1049       H  0.35654744  0.38218964  0.20544077     0.19400
H1050       H  0.32048151  0.31444014  0.26179848     0.19400
C1051       C  0.02057538  0.34133522  0.41599833    -0.06400
C1052       C  0.04298050  0.34584574  0.42945524    -0.17600
C1053       C  0.03718502  0.32381128  0.44335388     0.10800
C1054       C  0.00766609  0.29697325  0.44470980    -0.06300
C1055       C  0.98450051  0.29324321  0.43212096    -0.17600
C1056       C  0.99052093  0.31511477  0.41792088     0.10800
S1057       S  0.06921021  0.33036351  0.45800071    -0.32600
S1058       S  0.95896824  0.30822754  0.40279857    -0.32600
H1059       H  0.96915385  0.33963682  0.39985461     0.28800
H1060       H  0.06158819  0.29937684  0.45916905     0.28800
H1061       H  0.06619638  0.36560080  0.42826316     0.19400
H1062       H  0.96174053  0.27269999  0.43307749     0.19400
C1063       C  0.17265729  0.46466963  0.41569253    -0.06400
C1064       C  0.19648726  0.49550279  0.41772204    -0.17600
C1065       C  0.21482956  0.50550115  0.43375226     0.10800
C1066       C  0.21010394  0.48416441  0.44812426    -0.06300
C1067       C  0.18516358  0.45376726  0.44675372    -0.17600
C1068       C  0.16612687  0.44381802  0.43078281     0.10800
S1069       S  0.24531097  0.54544500  0.43452932    -0.32600
S1070       S  0.13566310  0.40394853  0.42924721    -0.32600
H1071       H  0.13771329  0.39560079  0.44784989     0.28800
H1072       H  0.24774540  0.54714163  0.45429121     0.28800
H1073       H  0.20106587  0.51210252  0.40662844     0.19400
H1074       H  0.18203923  0.43730643  0.45760453     0.19400
C1075       C  0.50097234  0.38844867  0.25076309    -0.06400
C1076       C  0.50362959  0.40957558  0.23697413    -0.17600
C1077       C  0.48449692  0.39958128  0.22117143     0.10800
C1078       C  0.46252817  0.36788395  0.21913835    -0.06300
C1079       C  0.46187417  0.34663174  0.23203926    -0.17600
C1080       C  0.48099602  0.35646104  0.24769356     0.10800
S1081       S  0.48712237  0.42849910  0.20508262    -0.32600
S1082       S  0.98186909  0.32812474  0.26296590    -0.32600
H1083       H  0.01334081  0.34484948  0.26793512     0.28800
H1084       H  0.47601543  0.40913532  0.18927695     0.28800
H1085       H  0.51945288  0.43403449  0.23900636     0.19400
H1086       H  0.44492944  0.32231572  0.23051258     0.19400
C1087       C  0.47525889  0.14491935  0.11165095    -0.06400
C1088       C  0.49860659  0.14342082  0.10131459    -0.17600
C1089       C  0.51651140  0.16581605  0.08768784     0.10800
C1090       C  0.51073722  0.19019918  0.08427355    -0.06300
C1091       C  0.48995369  0.19352891  0.09631769    -0.17600
C1092       C  0.47170389  0.17090308  0.10963330     0.10800
S1093       S  0.54575817  0.16230428  0.07442515    -0.32600
S1094       S  0.44287192  0.17569131  0.12244118    -0.32600
H1095       H  0.42091721  0.14430471  0.12497924     0.28800
H1096       H  0.54138503  0.13540082  0.08332519     0.28800
H1097       H  0.50154966  0.12368011  0.10325298     0.19400
H1098       H  0.48546887  0.21225587  0.09412182     0.19400
C1099       C  0.33783876  0.01370996  0.07876826    -0.06400
C1100       C  0.36714323  0.01611566  0.07726785    -0.17600
C1101       C  0.38921154  0.02980732  0.09152424     0.10800
C1102       C  0.38239758  0.04210618  0.10766217    -0.06300
C1103       C  0.35225778  0.03706607  0.11003942    -0.17600
C1104       C  0.32973372  0.02249251  0.09606617     0.10800
S1105       S  0.42537156  0.53296708  0.08825278    -0.32600
S1106       S  0.29117937  0.01618626  0.10057762    -0.32600
H1107       H  0.29627232  0.02833900  0.11895253     0.28800
H1108       H  0.43377659  0.03460917  0.10705789     0.28800
H1109       H  0.37303541  0.50847027  0.06461620     0.19400
H1110       H  0.34691825  0.04621203  0.12247598     0.19400
C1111       C  0.36224404  0.00107374  0.24680027    -0.06400
C1112       C  0.37808747  0.99219759  0.23402974    -0.17600
C1113       C  0.38792522  0.00652687  0.21634314     0.10800
C1114       C  0.38146948  0.02977847  0.21138769    -0.06300
C1115       C  0.36177568  0.03524957  0.22303454    -0.17600
C1116       C  0.35278595  0.52142774  0.24114664     0.10800
S1117       S  0.41177881  0.99781834  0.20114352    -0.32600
S1118       S  0.32985104  0.53228239  0.25563245    -0.32600
H1119       H  0.31207580  0.50326318  0.26433624     0.28800
H1120       H  0.40662190  0.97133258  0.21097809     0.28800
H1121       H  0.38465798  0.97569404  0.23843702     0.19400
H1122       H  0.35669910  0.05309831  0.21920985     0.19400
C1123       C  0.17880718  0.15112361  0.11332330    -0.06400
C1124       C  0.15042378  0.14504062  0.10570429    -0.17600
C1125       C  0.14946253  0.16076497  0.08955347     0.10800
C1126       C  0.17747097  0.18300529  0.08069718    -0.06300
C1127       C  0.20567921  0.18962698  0.08882096    -0.17600
C1128       C  0.20667919  0.17409339  0.10484899     0.10800
S1129       S  0.11197901  0.15069842  0.08061540    -0.32600
S1130       S  0.24432104  0.18199129  0.11254720    -0.32600
H1131       H  0.23590340  0.17457715  0.13162465     0.28800
H1132       H  0.12124879  0.18020579  0.07342529     0.28800
H1133       H  0.12892835  0.12679588  0.11176947     0.19400
H1134       H  0.22738207  0.20585586  0.08195148     0.19400
C1135       C  0.20264305  0.06923593  0.11731497    -0.06400
C1136       C  0.18038497  0.04205983  0.10861117    -0.17600
C1137       C  0.18798498  0.03050756  0.09261398     0.10800
C1138       C  0.21849958  0.04701635  0.08488712    -0.06300
C1139       C  0.24133990  0.07257780  0.09472747    -0.17600
C1140       C  0.23375303  0.08372872  0.11084915     0.10800
S1141       S  0.15844285  0.99471857  0.08236117    -0.32600
S1142       S  0.26416038  0.11831367  0.12153194    -0.32600
H1143       H  0.25032734  0.11283192  0.13956613     0.28800
H1144       H  0.13456496  0.98875704  0.09541978     0.28800
H1145       H  0.15656842  0.03112892  0.11362703     0.19400
H1146       H  0.26499571  0.08483529  0.08935697     0.19400
C1147       C  0.17181651  0.05750033  0.22019514    -0.06400
C1148       C  0.19251964  0.06347781  0.23501522    -0.17600
C1149       C  0.18559615  0.04191703  0.24956720     0.10800
C1150       C  0.15824988  0.51450176  0.25013689    -0.06300
C1151       C  0.13955367  0.50750473  0.23407878    -0.17600
C1152       C  0.14658369  0.52920648  0.21969029     0.10800
S1153       S  0.21430795  0.05195298  0.26752871    -0.32600
S1154       S  0.11819793  0.51897985  0.20146395    -0.32600
H1155       H  0.11951174  0.54760536  0.20109004     0.28800
H1156       H  0.20714927  0.02139660  0.27072835     0.28800
H1157       H  0.21375283  0.08565699  0.23562576     0.19400
H1158       H  0.11763722  0.48598367  0.23346410     0.19400
C1159       C  0.01655099  0.16793948  0.41948416    -0.06400
C1160       C  0.03829292  0.18496740  0.43345471    -0.17600
C1161       C  0.03145974  0.19965627  0.44802304     0.10800
C1162       C  0.00182690  0.19679199  0.44911486    -0.06300
C1163       C  0.97890502  0.17678746  0.43653879    -0.17600
C1164       C  0.98587477  0.16223140  0.42179310     0.10800
S1165       S  0.06310777  0.22562764  0.46283055    -0.32600
S1166       S  0.95583364  0.13758923  0.40556169    -0.32600
H1167       H  0.93149281  0.13957388  0.41438963     0.28800
H1168       H  0.04525353  0.21969291  0.47936329     0.28800
H1169       H  0.06184162  0.18952368  0.43199630     0.19400
H1170       H  0.95618234  0.17451813  0.43742243     0.19400
C1171       C  0.16864528  0.20165201  0.41246056    -0.06400
C1172       C  0.19230790  0.19440492  0.41342698    -0.17600
C1173       C  0.20891074  0.19911811  0.42998322     0.10800
C1174       C  0.20219211  0.21183853  0.44588374    -0.06300
C1175       C  0.17642021  0.21584440  0.44562367    -0.17600
C1176       C  0.15992513  0.21145823  0.42902920     0.10800
S1177       S  0.24080544  0.19189349  0.42947648    -0.32600
S1178       S  0.13073265  0.22248594  0.42948859    -0.32600
H1179       H  0.13932649  0.23756344  0.41189408     0.28800
H1180       H  0.24298184  0.19062167  0.44917727     0.28800
H1181       H  0.19843031  0.18569403  0.40107470     0.19400
H1182       H  0.17166095  0.22628724  0.45766794     0.19400
C1183       C  0.46642936  0.13397116  0.21557879    -0.06400
C1184       C  0.49840178  0.14532533  0.21546003    -0.17600
C1185       C  0.01515265  0.15831301  0.23150719     0.10800
C1186       C  0.50069778  0.15781588  0.24890597    -0.06300
C1187       C  0.46948174  0.15003267  0.24830608    -0.17600
C1188       C  0.45268455  0.13955643  0.23157504     0.10800
S1189       S  0.05656398  0.17715270  0.22823117    -0.32600
S1190       S  0.41277732  0.13057088  0.23113429    -0.32600
H1191       H  0.41237814  0.14255598  0.24905117     0.28800
H1192       H  0.06250982  0.20287755  0.23930411     0.28800
H1193       H  0.00816396  0.14154270  0.20303480     0.19400
H1194       H  0.45786009  0.15106212  0.26105608     0.19400
C1195       C  0.14554073  0.17852205  0.24506022    -0.06400
C1196       C  0.17700751  0.19061901  0.24028451    -0.17600
C1197       C  0.18618765  0.17657359  0.22644452     0.10800
C1198       C  0.16344656  0.15018315  0.21687904    -0.06300
C1199       C  0.13208370  0.13908465  0.22096124    -0.17600
C1200       C  0.12296787  0.15209210  0.23531972     0.10800
S1201       S  0.22718577  0.19187690  0.22267388    -0.32600
S1202       S  0.08287156  0.13026584  0.24272205    -0.32600
H1203       H  0.08969123  0.13166660  0.26196877     0.28800
H1204       H  0.22502215  0.18021481  0.20435100     0.28800
H1205       H  0.19459336  0.21028697  0.24795166     0.19400
H1206       H  0.11467204  0.11806098  0.21425285     0.19400
O1207       O  0.08246061  0.69934182  0.36351762    -0.88600
C1208       C  0.10795229  0.63672018  0.34659732     0.87400
Mg1209     Mg  0.03789637  0.69435861  0.35861031     1.58100
O1210       O  0.14106944  0.70635037  0.32044430    -0.88400
O1211       O  0.13164170  0.73290969  0.35951241    -0.75700
C1212       C  0.01516255  0.66179847  0.26756096     0.92400
O1213       O  0.03765423  0.62603333  0.35973461    -0.75500
O1214       O  0.50078266  0.65947121  0.28239826    -0.83000
Mg1215     Mg  0.08184566  0.65987574  0.37561150     1.58000
C1216       C  0.13652817  0.69060928  0.26202787     0.92400
O1217       O  0.12316442  0.68731456  0.39437631    -0.81300
H1218       H  0.16784866  0.75216386  0.31787068    -0.06600
C1219       C  0.06304048  0.63365013  0.29845811     0.87300
O1220       O  0.05739650  0.72717016  0.33297638    -0.75800
O1221       O  0.11181443  0.66151202  0.35263971    -0.88600
O1222       O  0.15144148  0.69562276  0.27723050    -0.81400
C1223       C  0.19442974  0.67888375  0.32366672     0.92500
C1224       C  0.15234244  0.69858306  0.39441396     0.92300
Mg1225     Mg  0.08507528  0.69799251  0.28603705     1.58000
O1226       O  0.04300326  0.66765321  0.26803626    -0.81300
O1227       O  0.12991691  0.73319124  0.30116312    -0.75500
O1228       O  0.18627869  0.68726255  0.33867542    -0.81400
O1229       O  0.05257622  0.66102091  0.40031196    -0.83100
O1230       O  0.48259161  0.67457633  0.32360030    -0.81400
C1231       C  0.14732328  0.73134133  0.31337639     0.86800
O1232       O  0.05631897  0.69896846  0.30910138    -0.88500
O1233       O  0.08534144  0.66015190  0.29957767    -0.88700
O1234       O  0.03574088  0.62755666  0.30270397    -0.75700
Mg1235     Mg  0.15458972  0.70580206  0.34887612     1.58000
O1236       O  0.17857350  0.67179400  0.30869575    -0.83100
H1237       H  0.10039233  0.74393609  0.36988580    -0.06800
O1238       O  0.02657208  0.65410153  0.34160133    -0.88400
H1239       H  0.99961781  0.60823568  0.34319908    -0.06600
H1240       H  0.07056678  0.74381763  0.30632263    -0.06800
C1241       C  0.02017145  0.62872006  0.34802418     0.86700
C1242       C  0.10448290  0.72598000  0.36472304     0.87300
C1243       C  0.06157455  0.72400881  0.31557870     0.87400
H1244       H  0.06682549  0.61521590  0.29391876    -0.06800
O1245       O  0.11246140  0.63325299  0.32931788    -0.75800
Mg1246     Mg  0.01326215  0.65543320  0.31313752     1.58000
H1247       H  0.09984348  0.61735317  0.35613598    -0.06800
C1248       C  0.02832754  0.66329018  0.40093166     0.92400
O1249       O  0.99100370  0.68933183  0.35385114    -0.83000
C1250       C  0.47494360  0.68239153  0.33902970     0.92400
O1251       O  0.16828632  0.70425263  0.37921511    -0.83000
Mg1252     Mg  0.13089081  0.66612974  0.30387469     1.58200
O1253       O  0.01659257  0.66667862  0.38596618    -0.81400
O1254       O  0.11208469  0.69240449  0.26162335    -0.83100
C1255       C  0.17831901  0.58474559  0.20843309    -0.11200
C1256       C  0.17456132  0.60774876  0.21715955    -0.05000
C1257       C  0.17242966  0.63019749  0.20674712    -0.11100
C1258       C  0.17409263  0.62991130  0.18680064     0.09800
C1259       C  0.17950320  0.60778812  0.17767957    -0.02900
C1260       C  0.18226580  0.58551140  0.18851920     0.09600
C1261       C  0.18872262  0.56458739  0.17916462    -0.12900
C1262       C  0.19223627  0.56532801  0.15955092    -0.12900
C1263       C  0.18860691  0.58648864  0.14857385     0.09600
C1264       C  0.18166020  0.60762334  0.15764721    -0.02900
C1265       C  0.17044262  0.65106144  0.17576578    -0.13100
C1266       C  0.17195591  0.65050412  0.15607627    -0.13100
C1267       C  0.17750307  0.62900150  0.14672893     0.09800
C1268       C  0.17971540  0.62854256  0.12676011    -0.11100
C1269       C  0.18664269  0.60763475  0.11823135    -0.05000
C1270       C  0.19217224  0.58755332  0.12872360    -0.11200
H1271       H  0.19146070  0.54770533  0.18702217     0.07100
H1272       H  0.19752999  0.54897850  0.15298058     0.07100
H1273       H  0.16634917  0.66823515  0.18231610     0.07200
H1274       H  0.16893269  0.66718582  0.14819305     0.07200
H1275       H  0.17131073  0.60707718  0.23235793     0.03700
H1276       H  0.18932092  0.60805523  0.10298324     0.03700
C1277       C  0.44654675  0.60820877  0.20193680    -0.11200
C1278       C  0.42635642  0.57988575  0.21024960    -0.05000
C1279       C  0.40415445  0.55509615  0.20000786    -0.11100
C1280       C  0.40372855  0.55713842  0.18022926     0.09800
C1281       C  0.42584474  0.58499401  0.17114340    -0.02900
C1282       C  0.44722544  0.61085874  0.18203726     0.09600
C1283       C  0.46831529  0.63833066  0.17274519    -0.12900
C1284       C  0.46943732  0.64006111  0.15311230    -0.12900
C1285       C  0.44863803  0.61478865  0.14211044     0.09600
C1286       C  0.42624756  0.58713533  0.15118535    -0.02900
C1287       C  0.38221036  0.53224592  0.16936761    -0.13100
C1288       C  0.38255319  0.53440561  0.14975661    -0.13100
C1289       C  0.40419012  0.56167475  0.14036721     0.09800
C1290       C  0.40457800  0.56420929  0.12043787    -0.11100
C1291       C  0.42738694  0.59146062  0.11178498    -0.05000
C1292       C  0.44940164  0.61647451  0.12223104    -0.11200
H1293       H  0.48431902  0.65865666  0.18055485     0.07100
H1294       H  0.48658765  0.66155957  0.14660764     0.07100
H1295       H  0.36519203  0.51078397  0.17599031     0.07200
H1296       H  0.36590195  0.51433815  0.14199364     0.07200
H1297       H  0.42690786  0.57740792  0.22543684     0.03700
H1298       H  0.42748730  0.59367041  0.09656407     0.03700
O1299       O  0.08803207  0.96175045  0.30457001    -0.88600
C1300       C  0.06429443  0.87046678  0.30663488     0.87400
Mg1301     Mg  0.13167103  0.99850946  0.31398928     1.58100
O1302       O  0.02941858  0.89193635  0.34301464    -0.88400
O1303       O  0.03917731  0.94299150  0.31208988    -0.75700
C1304       C  0.15559904  0.95418665  0.39688048     0.92400
O1305       O  0.13343955  0.93390513  0.29861479    -0.75500
O1306       O  0.16960584  0.96881716  0.38197627    -0.83000
Mg1307     Mg  0.08927123  0.92851895  0.28562215     1.58000
C1308       C  0.03155515  0.86030886  0.39840344     0.92400
O1309       O  0.04750001  0.92010827  0.26804688    -0.81300
H1310       H  0.00130195  0.90715708  0.35178019    -0.06600
C1311       C  0.10748990  0.89048659  0.35712214     0.87300
O1312       O  0.11098558  0.99832770  0.34322513    -0.75800
O1313       O  0.05976361  0.89236316  0.30539195    -0.88600
O1314       O  0.02026290  0.84942034  0.38219636    -0.81400
C1315       C  0.47664151  0.81593207  0.32663475     0.92500
C1316       C  0.01873361  0.89995672  0.26852103     0.92300
Mg1317     Mg  0.08425078  0.92648002  0.38005275     1.58000
O1318       O  0.12665696  0.93456652  0.39712825    -0.81300
O1319       O  0.03951844  0.92126299  0.36777953    -0.75500
O1320       O  0.48502567  0.83764008  0.31475140    -0.81400
O1321       O  0.11993753  0.96699892  0.26512334    -0.83100
O1322       O  0.18589889  0.52037175  0.35157629    -0.81400
C1323       C  0.02227157  0.90642641  0.35408809     0.86800
O1324       O  0.11290108  0.96334376  0.36045950    -0.88500
O1325       O  0.08488621  0.89361058  0.36043037    -0.88700
O1326       O  0.13398990  0.91336392  0.35302762    -0.75700
Mg1327     Mg  0.01690863  0.89050801  0.31394150     1.58000
O1328       O  0.49252478  0.81866350  0.34121587    -0.83100
H1329       H  0.06903597  0.98836871  0.30693385    -0.06800
O1330       O  0.14343826  0.96447526  0.32275765    -0.88400
H1331       H  0.17164285  0.94898165  0.31472331    -0.06600
H1332       H  0.09723355  0.99018593  0.37069733    -0.06800
C1333       C  0.15067785  0.94956836  0.31209665     0.86700
C1334       C  0.06565982  0.96535836  0.30752131     0.87300
C1335       C  0.10693978  0.98426514  0.35876999     0.87400
H1336       H  0.10442457  0.86758030  0.35718135    -0.06800
O1337       O  0.05979817  0.85595456  0.32201956    -0.75800
Mg1338     Mg  0.15607529  0.96612637  0.35172023     1.58000
H1339       H  0.07307602  0.86403566  0.29447037    -0.06800
C1340       C  0.14311016  0.99414985  0.26704054     0.92400
O1341       O  0.17773965  0.53811112  0.32477970    -0.83000
C1342       C  0.19340375  0.54183959  0.33958132     0.92400
O1343       O  0.50401103  0.88654437  0.28366153    -0.83000
Mg1344     Mg  0.04023666  0.85692458  0.35137205     1.58200
O1345       O  0.15247122  0.00591357  0.28338022    -0.81400
O1346       O  0.05500738  0.88726433  0.40020963    -0.83100
O1347       O  0.35469942  0.92325186  0.30222090    -0.88600
C1348       C  0.29326970  0.95248161  0.31531384     0.87400
Mg1349     Mg  0.34845464  0.87915094  0.30994534     1.58100
O1350       O  0.36272647  0.98913757  0.34131613    -0.88400
O1351       O  0.38886592  0.97247431  0.30439758    -0.75700
C1352       C  0.31350451  0.86847058  0.40018586     0.92400
O1353       O  0.28027575  0.88150590  0.30666249    -0.75500
O1354       O  0.30759227  0.85168914  0.38563453    -0.83000
Mg1355     Mg  0.31589050  0.92273571  0.28911317     1.58000
C1356       C  0.35256184  0.99126481  0.40094537     0.92400
O1357       O  0.34581179  0.96011867  0.26816119    -0.81300
H1358       H  0.40901069  0.01387885  0.34218537    -0.06600
C1359       C  0.28831731  0.91446066  0.36633475     0.87300
O1360       O  0.38079064  0.90037331  0.33500096    -0.75800
O1361       O  0.31809114  0.95534075  0.30975073    -0.88600
O1362       O  0.34625592  0.00201832  0.38638188    -0.81400
C1363       C  0.33304875  0.53925950  0.33186643     0.92500
C1364       C  0.35639353  0.98879151  0.26615735     0.92300
Mg1365     Mg  0.35458401  0.93586201  0.37780136     1.58000
O1366       O  0.32546901  0.89755541  0.39918686    -0.81300
O1367       O  0.38959403  0.97712903  0.35994731    -0.75500
O1368       O  0.34169528  0.52945368  0.31775432    -0.81400
O1369       O  0.31580552  0.89073930  0.26712404    -0.83100
O1370       O  0.32624021  0.82872722  0.34905040    -0.81400
C1371       C  0.38785512  0.99451672  0.34770516     0.86800
O1372       O  0.35171591  0.90345001  0.35706799    -0.88500
O1373       O  0.31540894  0.93602639  0.36534539    -0.88700
O1374       O  0.28111807  0.88694514  0.36241340    -0.75700
Mg1375     Mg  0.36229224  0.99771403  0.31158165     1.58000
O1376       O  0.32801496  0.02663934  0.34783029    -0.83100
H1377       H  0.39992204  0.93997420  0.29723838    -0.06800
O1378       O  0.30743925  0.87063402  0.32573268    -0.88400
H1379       H  0.26121010  0.84502134  0.32463168    -0.06600
H1380       H  0.39578249  0.91527716  0.36151239    -0.06800
C1381       C  0.28223043  0.86457279  0.31912922     0.86700
C1382       C  0.38174568  0.94483659  0.30094258     0.87300
C1383       C  0.37669804  0.90639468  0.35179356     0.87400
H1384       H  0.27014120  0.91928073  0.37012588    -0.06800
O1385       O  0.28979626  0.95911956  0.33210459    -0.75800
Mg1386     Mg  0.30727964  0.86141800  0.35496685     1.58000
H1387       H  0.27386613  0.94340107  0.30582980    -0.06800
C1388       C  0.31862171  0.86708173  0.26723391     0.92400
O1389       O  0.34260568  0.83323893  0.31914555    -0.83000
C1390       C  0.33540918  0.81935722  0.33500759     0.92400
O1391       O  0.36100990  0.50628729  0.28055693    -0.83000
Mg1392     Mg  0.32173454  0.98034994  0.35752688     1.58200
O1393       O  0.32185822  0.85607374  0.28265792    -0.81400
O1394       O  0.35652256  0.96828349  0.39980120    -0.83100
C1395       C  0.43469831  0.85668061  0.20796340    -0.11200
C1396       C  0.40928540  0.85537831  0.21732597    -0.05000
C1397       C  0.38123447  0.84539661  0.20829517    -0.11100
C1398       C  0.37905206  0.83829445  0.18891146     0.09800
C1399       C  0.40430253  0.83813143  0.17942173    -0.02900
C1400       C  0.43202681  0.84655550  0.18911821     0.09600
C1401       C  0.45619551  0.84493527  0.17969454    -0.12900
C1402       C  0.45307862  0.83502859  0.16094829    -0.12900
C1403       C  0.42617583  0.82754178  0.15089411     0.09600
C1404       C  0.40182314  0.82969854  0.16018015    -0.02900
C1405       C  0.35247237  0.83149670  0.17878595    -0.13100
C1406       C  0.35105067  0.82563583  0.15957530    -0.13100
C1407       C  0.37517343  0.82405958  0.15014016     0.09800
C1408       C  0.37371789  0.81753524  0.13078849    -0.11100
C1409       C  0.39646974  0.81325368  0.12215388    -0.05000
C1410       C  0.42254790  0.81794183  0.13178849    -0.11200
H1411       H  0.47755791  0.85107483  0.18684135     0.07100
H1412       H  0.47202672  0.83374133  0.15425908     0.07100
H1413       H  0.33283866  0.83141398  0.18550473     0.07200
H1414       H  0.33057938  0.82192048  0.15230388     0.07200
H1415       H  0.41135173  0.86214029  0.23204907     0.03700
H1416       H  0.39421883  0.80694412  0.10733748     0.03700
O1417       O  0.26415770  0.50760266  0.96389645    -0.88600
C1418       C  0.18139067  0.94964896  0.99070900     0.87400
Mg1419     Mg  0.30583560  0.50560627  0.96818222     1.58100
O1420       O  0.21985847  0.52677936  0.00800257    -0.88400
O1421       O  0.24667123  0.53972499  0.96569404    -0.75700
C1422       C  0.31794436  0.50584607  0.06136251     0.92400
O1423       O  0.23897027  0.93774948  0.97681520    -0.75500
O1424       O  0.32515142  0.49630611  0.04652127    -0.83000
Mg1425     Mg  0.22402322  0.96484928  0.95782945     1.58000
C1426       C  0.22777112  0.53867612  0.06717772     0.92400
O1427       O  0.20661610  0.98681129  0.93657937    -0.81300
H1428       H  0.23799903  0.57207716  0.00389582    -0.06600
C1429       C  0.23430413  0.96494286  0.03732401     0.87300
O1430       O  0.32408672  0.54589821  0.98936064    -0.75800
O1431       O  0.20021996  0.97227115  0.98138189    -0.88600
O1432       O  0.20774123  0.52749369  0.05416652    -0.81400
C1433       C  0.13741515  0.99455328  0.00996802     0.92500
C1434       C  0.18339301  0.99082963  0.93651282     0.92300
Mg1435     Mg  0.27826249  0.53392111  0.03991409     1.58000
O1436       O  0.29752701  0.51383041  0.06101530    -0.81300
O1437       O  0.26300686  0.56104119  0.02118863    -0.75500
O1438       O  0.14864894  0.99406263  0.99371373    -0.81400
O1439       O  0.24837218  0.95636629  0.93278089    -0.83100
O1440       O  0.35155303  0.50443294  0.00419659    -0.81400
C1441       C  0.23985053  0.55395037  0.01081047     0.86800
O1442       O  0.30122053  0.52599343  0.01635826    -0.88500
O1443       O  0.23694339  0.99020056  0.03365053    -0.88700
O1444       O  0.25487757  0.95843951  0.03228474    -0.75700
Mg1445     Mg  0.19871208  0.51474878  0.98064746     1.58000
O1446       O  0.15140403  0.99592129  0.02512686    -0.83100
H1447       H  0.28753986  0.55013441  0.95297460    -0.06800
O1448       O  0.28197136  0.97231660  0.99009455    -0.88400
H1449       H  0.26405221  0.92706040  0.99427952    -0.06600
H1450       H  0.33235741  0.57089545  0.01341061    -0.06800
C1451       C  0.26212074  0.94507185  0.98726791     0.86700
C1452       C  0.26697521  0.53298944  0.96040006     0.87300
C1453       C  0.31981282  0.54846953  0.00682289     0.87400
H1454       H  0.21371006  0.94773926  0.04469627    -0.06800
O1455       O  0.17671678  0.95198705  0.00813664    -0.75800
Mg1456     Mg  0.30291491  0.98418260  0.01751722     1.58000
H1457       H  0.16893028  0.92734453  0.98396724    -0.06800
C1458       C  0.27532115  0.95969531  0.93116549     0.92400
O1459       O  0.34906855  0.50189966  0.97277072    -0.83000
C1460       C  0.36296250  0.50390877  0.98805897     0.92400
O1461       O  0.17495717  0.99910948  0.95138937    -0.83000
Mg1462     Mg  0.19493038  0.99208583  0.02947344     1.58200
O1463       O  0.29527353  0.97212811  0.94412013    -0.81400
O1464       O  0.25452342  0.54176283  0.06514833    -0.83100
O1465       O  0.24990605  0.72598265  0.97141479    -0.88600
C1466       C  0.27446691  0.81537001  0.98251244     0.87400
Mg1467     Mg  0.20433860  0.68675475  0.97438265     1.58100
O1468       O  0.30615169  0.78342058  0.01318130    -0.88400
O1469       O  0.29933414  0.74383539  0.97642475    -0.75700
C1470       C  0.17864503  0.69801633  0.06279464     0.92400
O1471       O  0.20681984  0.75620591  0.97068114    -0.75500
O1472       O  0.16174270  0.68263893  0.04902887    -0.83000
Mg1473     Mg  0.25259879  0.76406245  0.95685673     1.58000
C1474       C  0.29368698  0.79105857  0.07018640     0.92400
O1475       O  0.29583561  0.77013018  0.94181527    -0.81300
H1476       H  0.33223334  0.76435375  0.01783178    -0.06600
C1477       C  0.22216109  0.77486107  0.03053734     0.87300
O1478       O  0.21955306  0.67269226  0.00125630    -0.75800
O1479       O  0.27848378  0.79348914  0.97948158    -0.88600
O1480       O  0.30476610  0.80803166  0.05565146    -0.81400
C1481       C  0.35623683  0.86375096  0.00781154     0.92500
C1482       C  0.32008203  0.79614270  0.93939292     0.92300
Mg1483     Mg  0.24457797  0.73445992  0.04489893     1.58000
O1484       O  0.20036996  0.72539686  0.05987933    -0.81300
O1485       O  0.29107721  0.74382457  0.03210134    -0.75500
O1486       O  0.34977811  0.84707412  0.99302127    -0.81400
O1487       O  0.22615961  0.73573180  0.93218893    -0.83100
O1488       O  0.14939963  0.64968837  0.00880316    -0.81400
C1489       C  0.31096989  0.76430304  0.02101330     0.86800
O1490       O  0.21926772  0.70461609  0.02192247    -0.88500
O1491       O  0.24539338  0.77206658  0.02994096    -0.88700
O1492       O  0.19523035  0.75220931  0.02703076    -0.75700
Mg1493     Mg  0.32148994  0.79558241  0.98449845     1.58000
O1494       O  0.33885989  0.85509762  0.02247520    -0.83100
H1495       H  0.26913517  0.69951129  0.96886291    -0.06800
O1496       O  0.19007860  0.71572327  0.98925398    -0.88400
H1497       H  0.16651936  0.73783117  0.98587273    -0.06600
H1498       H  0.23047020  0.67289046  0.02879205    -0.06800
C1499       C  0.18675558  0.73632053  0.98207564     0.86700
C1500       C  0.27240872  0.72203281  0.97206216     0.87300
C1501       C  0.22337007  0.68300843  0.01795263     0.87400
H1502       H  0.22471652  0.79691856  0.03428532    -0.06800
O1503       O  0.27653115  0.82574984  0.99901634    -0.75800
Mg1504     Mg  0.17511771  0.70092541  0.01804694     1.58000
H1505       H  0.26837429  0.82529374  0.97102680    -0.06800
C1506       C  0.19993319  0.71135981  0.93152798     0.92400
O1507       O  0.15660352  0.64572086  0.97797416    -0.83000
C1508       C  0.14128550  0.63506360  0.99319934     0.92400
O1509       O  0.33566800  0.81107563  0.95366236    -0.83000
Mg1510     Mg  0.29057689  0.81283404  0.02645084     1.58200
O1511       O  0.18784291  0.69415107  0.94591629    -0.81400
O1512       O  0.27019058  0.76423277  0.06930542    -0.83100
O1513       O  0.01883955  0.77579112  0.03217556    -0.88600
C1514       C  0.46145905  0.68554207  0.01783089     0.87400
Mg1515     Mg  0.00925519  0.81199507  0.02558684     1.58100
O1516       O  0.03137838  0.72186385  0.99171267    -0.88400
O1517       O  0.05399307  0.76198884  0.02933440    -0.75700
C1518       C  0.98132168  0.79423258  0.93490054     0.92400
O1519       O  0.44430865  0.73928279  0.02942848    -0.75500
O1520       O  0.97283418  0.80232134  0.94978476    -0.83000
Mg1521     Mg  0.48185753  0.73566812  0.04577114     1.58000
C1522       C  0.02725617  0.71414471  0.93247777     0.92400
O1523       O  0.51621937  0.73115380  0.06462206    -0.81300
H1524       H  0.07771433  0.74644188  0.99083831    -0.06600
C1525       C  0.45564969  0.71899699  0.96775700     0.87300
O1526       O  0.04215561  0.82636895  0.99991325    -0.75800
O1527       O  0.48562392  0.70800377  0.02346064    -0.88600
O1528       O  0.01976467  0.69659818  0.94699184    -0.81400
C1529       C  0.50490213  0.64217794  0.99975516     0.92500
C1530       C  0.51810495  0.70697191  0.06614499     0.92300
Mg1531     Mg  0.02094920  0.76690263  0.95608907     1.58000
O1532       O  0.99092552  0.77513796  0.93552869    -0.81300
O1533       O  0.05690715  0.76230257  0.97346096    -0.75500
O1534       O  0.51082484  0.65909454  0.01433649    -0.81400
O1535       O  0.47747443  0.76409937  0.06919313    -0.83100
O1536       O  0.98814270  0.84031772  0.98681895    -0.81400
C1537       C  0.05614076  0.74326330  0.98547684     0.86800
O1538       O  0.01540859  0.79373239  0.97783310    -0.88500
O1539       O  0.48321410  0.72612713  0.96851070    -0.88700
O1540       O  0.44672885  0.73791269  0.97214704    -0.75700
Mg1541     Mg  0.02917256  0.71013238  0.02110253     1.58000
O1542       O  0.50113700  0.65073750  0.98358200    -0.83100
H1543       H  0.06388447  0.80520477  0.03665407    -0.06800
O1544       O  0.46951320  0.77822640  0.01001514    -0.88400
H1545       H  0.42318239  0.75477314  0.01199527    -0.06600
H1546       H  0.05865038  0.82855696  0.97328742    -0.06800
C1547       C  0.44485233  0.75767684  0.01697808     0.86700
C1548       C  0.04615845  0.78204425  0.03294536     0.87300
C1549       C  0.03937870  0.81677186  0.98309075     0.87400
H1550       H  0.43855208  0.69578440  0.96369614    -0.06800
O1551       O  0.45913197  0.67600688  0.00098578    -0.75800
Mg1552     Mg  0.47027587  0.78920908  0.98055311     1.58000
H1553       H  0.44172807  0.67407663  0.02734543    -0.06800
C1554       C  0.47630262  0.78881195  0.06930068     0.92400
O1555       O  0.99958255  0.85028292  0.01730530    -0.83000
C1556       C  0.99461819  0.85781181  0.00112342     0.92400
O1557       O  0.52405842  0.69566308  0.05175002    -0.83000
Mg1558     Mg  0.49253426  0.68985903  0.97539894     1.58200
O1559       O  0.48190288  0.80503250  0.05434781    -0.81400
O1560       O  0.02678116  0.73916757  0.93298914    -0.83100
O1561       O  0.18919554  0.56935194  0.63414875    -0.88600
C1562       C  0.12615667  0.59647634  0.64815685     0.87400
Mg1563     Mg  0.18101096  0.52354035  0.64035617     1.58100
O1564       O  0.19433569  0.62934742  0.67553166    -0.88400
O1565       O  0.22274146  0.61836277  0.63781479    -0.75700
C1566       C  0.13888145  0.50507023  0.73112189     0.92400
O1567       O  0.11532178  0.52628990  0.63539789    -0.75500
O1568       O  0.13421188  0.98833982  0.71638024    -0.83000
Mg1569     Mg  0.15216054  0.57025525  0.61983727     1.58000
C1570       C  0.17893302  0.62894413  0.73442716     0.92400
O1571       O  0.18315484  0.61180515  0.60108814    -0.81300
H1572       H  0.24041411  0.65493078  0.67803417    -0.06600
C1573       C  0.11845923  0.55405174  0.69773490     0.87300
O1574       O  0.21174763  0.54206600  0.66666402    -0.75800
O1575       O  0.15120571  0.60008167  0.64228939    -0.88600
O1576       O  0.18078228  0.64177990  0.71868538    -0.81400
C1577       C  0.16969046  0.68403079  0.67048556     0.92500
C1578       C  0.19315472  0.64065262  0.60091679     0.92300
Mg1579     Mg  0.18283838  0.57444442  0.71142244     1.58000
O1580       O  0.15120050  0.53415073  0.73009602    -0.81300
O1581       O  0.21984091  0.61773280  0.69550274    -0.75500
O1582       O  0.17607249  0.67468841  0.65515677    -0.81400
O1583       O  0.15745621  0.54149026  0.59615733    -0.83100
O1584       O  0.15671132  0.96917526  0.67755482    -0.81400
C1585       C  0.21900335  0.63506298  0.68281315     0.86800
O1586       O  0.18262530  0.54390656  0.68940127    -0.88500
O1587       O  0.14566217  0.57540577  0.69733930    -0.88700
O1588       O  0.11126245  0.52672909  0.69328526    -0.75700
Mg1589     Mg  0.19537508  0.64235703  0.64664102     1.58000
O1590       O  0.16275417  0.66861703  0.68565355    -0.83100
H1591       H  0.23463741  0.58688963  0.62947438    -0.06800
O1592       O  0.14016615  0.51489031  0.65600806    -0.88400
H1593       H  0.09427854  0.48891214  0.65271555    -0.06600
H1594       H  0.22678941  0.55558200  0.69338478    -0.06800
C1595       C  0.11577513  0.50899421  0.64826558     0.86700
C1596       C  0.21617120  0.59113662  0.63352264     0.87300
C1597       C  0.20768807  0.54734251  0.68371473     0.87400
H1598       H  0.10028570  0.55886473  0.70155090    -0.06800
O1599       O  0.12247083  0.60209605  0.66521954    -0.75800
Mg1600     Mg  0.13800938  0.50197800  0.68520905     1.58000
H1601       H  0.10684288  0.58801266  0.63863482    -0.06800
C1602       C  0.15776703  0.51632228  0.59676623     0.92400
O1603       O  0.17184269  0.47515442  0.64701669    -0.83000
C1604       C  0.16443101  0.95986323  0.66273456     0.92400
O1605       O  0.19609493  0.65579909  0.61597370    -0.83000
Mg1606     Mg  0.15375145  0.62075535  0.69143267     1.58200
O1607       O  0.15460193  0.50293811  0.61255813    -0.81400
O1608       O  0.17940828  0.60388471  0.73509401    -0.83100
C1609       C  0.12067391  0.67727744  0.86889183    -0.11200
C1610       C  0.09639632  0.67779463  0.87837602    -0.05000
C1611       C  0.07200666  0.67725534  0.86884032    -0.11100
C1612       C  0.07095053  0.67454901  0.84889864     0.09800
C1613       C  0.09496664  0.67251575  0.83905909    -0.02900
C1614       C  0.12016191  0.67428322  0.84912362     0.09600
C1615       C  0.14399541  0.67288055  0.83925326    -0.12900
C1616       C  0.14280504  0.66896444  0.81975005    -0.12900
C1617       C  0.11799483  0.66683250  0.80943398     0.09600
C1618       C  0.09410668  0.66921106  0.81913231    -0.02900
C1619       C  0.04674487  0.67360213  0.83857078    -0.13100
C1620       C  0.04584259  0.67027377  0.81895230    -0.13100
C1621       C  0.06914197  0.66780642  0.80900588     0.09800
C1622       C  0.06816235  0.66382504  0.78918813    -0.11100
C1623       C  0.09184043  0.66148484  0.77986637    -0.05000
C1624       C  0.11637710  0.66232396  0.78965880    -0.11200
H1625       H  0.16347707  0.67424654  0.84663410     0.07100
H1626       H  0.16154465  0.66765791  0.81278402     0.07100
H1627       H  0.02821001  0.67514344  0.84565077     0.07200
H1628       H  0.02665619  0.66956997  0.81160196     0.07200
H1629       H  0.09765862  0.68087548  0.89358974     0.03700
H1630       H  0.09034960  0.65746200  0.76476494     0.03700
C1631       C  0.09319281  0.93140621  0.87866252    -0.11200
C1632       C  0.06844334  0.90681081  0.88827714    -0.05000
C1633       C  0.04186089  0.88489358  0.87889732    -0.11100
C1634       C  0.03976712  0.88754873  0.85924204     0.09800
C1635       C  0.06457835  0.91251145  0.84927115    -0.02900
C1636       C  0.09134178  0.93465965  0.85897161     0.09600
C1637       C  0.11575808  0.95888828  0.84866917    -0.12900
C1638       C  0.11401825  0.96123257  0.82913184    -0.12900
C1639       C  0.08755986  0.93979726  0.81933161     0.09600
C1640       C  0.06268295  0.91510557  0.82950509    -0.02900
C1641       C  0.01342916  0.86596080  0.84933899    -0.13100
C1642       C  0.01173443  0.86830039  0.82993704    -0.13100
C1643       C  0.03603270  0.89264706  0.81985066     0.09800
C1644       C  0.03431616  0.89541096  0.80028072    -0.11100
C1645       C  0.05805503  0.92024464  0.79063985    -0.05000
C1646       C  0.08479083  0.94211613  0.79962470    -0.11200
H1647       H  0.13652467  0.97606144  0.85565905     0.07100
H1648       H  0.13335605  0.98013617  0.82174113     0.07100
H1649       H  0.99380191  0.84705599  0.85650072     0.07200
H1650       H  0.99102881  0.85109578  0.82289518     0.07200
H1651       H  0.07020824  0.90428840  0.90332560     0.03700
H1652       H  0.05618732  0.92189281  0.77548108     0.03700
O1653       O  0.39928904  0.56889665  0.70239299    -0.88600
C1654       C  0.48342116  0.59244004  0.67802123     0.87400
Mg1655     Mg  0.35788091  0.52509319  0.69797601     1.58100
O1656       O  0.44748778  0.63141785  0.65915036    -0.88400
O1657       O  0.41771429  0.61871280  0.70068918    -0.75700
C1658       C  0.35396958  0.51152900  0.60478450     0.92400
O1659       O  0.42625178  0.52421272  0.69217158    -0.75500
O1660       O  0.34585604  0.49336306  0.61898777    -0.83000
Mg1661     Mg  0.43965880  0.56707073  0.71041828     1.58000
C1662       C  0.44151169  0.63544590  0.60088607     0.92400
O1663       O  0.45515605  0.60774146  0.73096817    -0.81300
H1664       H  0.42907192  0.65834441  0.66297331    -0.06600
C1665       C  0.43410250  0.55484699  0.63036700     0.87300
O1666       O  0.34063840  0.54574961  0.67583394    -0.75800
O1667       O  0.46478185  0.59733283  0.68677369    -0.88600
O1668       O  0.46205485  0.64238932  0.61340310    -0.81400
C1669       C  0.02999524  0.67991407  0.65802902     0.92500
C1670       C  0.47868917  0.63493357  0.73097053     0.92300
Mg1671     Mg  0.38980592  0.57927093  0.62733112     1.58000
O1672       O  0.37184888  0.54037314  0.60658129    -0.81300
O1673       O  0.40397899  0.62137900  0.64613086    -0.75500
O1674       O  0.01613039  0.67110336  0.67403517    -0.81400
O1675       O  0.41371728  0.53472647  0.73547108    -0.83100
O1676       O  0.31613971  0.97388284  0.66239379    -0.81400
C1677       C  0.42735900  0.63821270  0.65619093     0.86800
O1678       O  0.36540511  0.54735733  0.64991622    -0.88500
O1679       O  0.43058694  0.57697695  0.63397055    -0.88700
O1680       O  0.41421366  0.52762060  0.63544872    -0.75700
Mg1681     Mg  0.46658623  0.64109136  0.68677583     1.58000
O1682       O  0.01766640  0.66595599  0.64278570    -0.83100
H1683       H  0.37563210  0.58852357  0.71224151    -0.06800
O1684       O  0.38420778  0.51472346  0.67732435    -0.88400
H1685       H  0.40261773  0.48755816  0.67479535    -0.06600
H1686       H  0.33329527  0.55993726  0.65069659    -0.06800
C1687       C  0.40392632  0.50773765  0.68124228     0.86700
C1688       C  0.39659466  0.59168255  0.70548484     0.87300
C1689       C  0.34573261  0.55105679  0.65831485     0.87400
H1690       H  0.45511519  0.55891161  0.62321478    -0.06800
O1691       O  0.48853622  0.59809009  0.66048920    -0.75800
Mg1692     Mg  0.36574930  0.50419853  0.64921666     1.58000
H1693       H  0.49514565  0.58251834  0.68536307    -0.06800
C1694       C  0.38683565  0.51070941  0.73652827     0.92400
O1695       O  0.31386564  0.97937945  0.69359376    -0.83000
C1696       C  0.30236036  0.96478270  0.67838261     0.92400
O1697       O  0.48833103  0.65072059  0.71584040    -0.83000
Mg1698     Mg  0.47240114  0.61993432  0.63819010     1.58200
O1699       O  0.36776847  0.50285461  0.72304481    -0.81400
O1700       O  0.41451406  0.61197146  0.60271663    -0.83100
O1701       O  0.40943552  0.83896111  0.69859398    -0.88600
C1702       C  0.43463540  0.77399102  0.68572264     0.87400
Mg1703     Mg  0.36689731  0.83643128  0.69065778     1.58100
O1704       O  0.47575689  0.84323612  0.65977200    -0.88400
O1705       O  0.45959142  0.87051369  0.69607155    -0.75700
C1706       C  0.36006374  0.80460716  0.60031515     0.92400
O1707       O  0.36365999  0.76520418  0.69338717    -0.75500
O1708       O  0.34266525  0.80046648  0.61453046    -0.83000
Mg1709     Mg  0.40534357  0.79786231  0.71118200     1.58000
C1710       C  0.48084141  0.83361754  0.60015788     0.92400
O1711       O  0.44258554  0.82479533  0.73220738    -0.81300
H1712       H  0.50479654  0.88881026  0.65856708    -0.06600
C1713       C  0.39942557  0.77287962  0.63500778     0.87300
O1714       O  0.39116180  0.86861481  0.66540283    -0.75800
O1715       O  0.43810861  0.79901975  0.69084759    -0.88600
O1716       O  0.48998681  0.82664723  0.61514331    -0.81400
C1717       C  0.02336035  0.81225249  0.67136546     0.92500
C1718       C  0.47135042  0.83584010  0.73457316     0.92300
Mg1719     Mg  0.42673312  0.83993233  0.62290709     1.58000
O1720       O  0.38857751  0.81334450  0.60184502    -0.81300
O1721       O  0.46890970  0.87281299  0.64041741    -0.75500
O1722       O  0.01164538  0.81841565  0.68561689    -0.81400
O1723       O  0.37331345  0.79827842  0.73311132    -0.83100
O1724       O  0.32045014  0.82099685  0.65056432    -0.81400
C1725       C  0.48432647  0.86897056  0.65306099     0.86800
O1726       O  0.39466261  0.83960111  0.64375196    -0.88500
O1727       O  0.42273322  0.79891690  0.63562233    -0.88700
O1728       O  0.37239630  0.76831230  0.63862233    -0.75700
Mg1729     Mg  0.48234121  0.84152693  0.68952915     1.58000
O1730       O  0.01153951  0.80735609  0.65496243    -0.83100
H1731       H  0.42894163  0.88428531  0.70311202    -0.06800
O1732       O  0.35620127  0.79538085  0.67484919    -0.88400
H1733       H  0.32750902  0.74971465  0.67549662    -0.06600
H1734       H  0.40960260  0.88426379  0.63931526    -0.06800
C1735       C  0.34791342  0.76944127  0.68115987     0.86700
C1736       C  0.43232679  0.86518924  0.69963485     0.87300
C1737       C  0.39878090  0.86485734  0.64890919     0.87400
H1738       H  0.40218152  0.75334034  0.63171824    -0.06800
O1739       O  0.44231113  0.77039328  0.66920681    -0.75800
Mg1740     Mg  0.34992806  0.79779188  0.64537453     1.58000
H1741       H  0.42427600  0.75461505  0.69535494    -0.06800
C1742       C  0.35170078  0.80452293  0.73365208     0.92400
O1743       O  0.32191492  0.83314684  0.68104598    -0.83000
C1744       C  0.30988665  0.82868578  0.66474701     0.92400
O1745       O  0.98887803  0.83991202  0.72160007    -0.83000
Mg1746     Mg  0.46598792  0.80257298  0.64384559     1.58200
O1747       O  0.34268817  0.81185061  0.71879573    -0.81400
O1748       O  0.45863081  0.83905704  0.60067949    -0.83100
C1749       C  0.31525799  0.90740345  0.87315862    -0.11200
C1750       C  0.31766078  0.88517554  0.88351627    -0.05000
C1751       C  0.32478773  0.86442643  0.87492005    -0.11100
C1752       C  0.32793210  0.86459706  0.85508651     0.09800
C1753       C  0.32838396  0.88878215  0.84453352    -0.02900
C1754       C  0.32324881  0.91109744  0.85369160     0.09600
C1755       C  0.32624906  0.93612030  0.84314089    -0.12900
C1756       C  0.33517963  0.93967416  0.82406094    -0.12900
C1757       C  0.33874702  0.91694568  0.81457337     0.09600
C1758       C  0.33390252  0.89055759  0.82477509    -0.02900
C1759       C  0.33032381  0.84128835  0.84553381    -0.13100
C1760       C  0.33208649  0.84117163  0.82589154    -0.13100
C1761       C  0.33476580  0.86599160  0.81529143     0.09800
C1762       C  0.33857360  0.86725208  0.79545737    -0.11100
C1763       C  0.34559898  0.89428740  0.78588531    -0.05000
C1764       C  0.34712702  0.91958280  0.79518890    -0.11200
H1765       H  0.32275871  0.95363743  0.84975096     0.07100
H1766       H  0.33836611  0.95987505  0.81663512     0.07100
H1767       H  0.32985491  0.82243531  0.85314757     0.07200
H1768       H  0.33246575  0.82200156  0.81911510     0.07200
H1769       H  0.31314491  0.88350496  0.89861969     0.03700
H1770       H  0.35059218  0.89590677  0.77084249     0.03700
C1771       C  0.99633119  0.71883784  0.45940848    -0.11200
C1772       C  0.99961022  0.74369741  0.44871615    -0.05000
C1773       C  0.00055579  0.76946951  0.45710267    -0.11100
C1774       C  0.99851467  0.77069283  0.47707834     0.09800
C1775       C  0.99348612  0.74492997  0.48807092    -0.02900
C1776       C  0.99142394  0.71851545  0.47915000     0.09600
C1777       C  0.98496888  0.69274518  0.49020651    -0.12900
C1778       C  0.48090027  0.69283302  0.50927976    -0.12900
C1779       C  0.48427243  0.71915720  0.51853622     0.09600
C1780       C  0.49138474  0.74577974  0.50776300    -0.02900
C1781       C  0.00177238  0.79700128  0.48637843    -0.13100
C1782       C  0.50139229  0.79846368  0.50587228    -0.13100
C1783       C  0.49569988  0.77297523  0.51694305     0.09800
C1784       C  0.49405340  0.77362144  0.53695927    -0.11100
C1785       C  0.48660213  0.74699247  0.54714168    -0.05000
C1786       C  0.48110495  0.71984497  0.53834886    -0.11200
H1787       H  0.98284403  0.67216672  0.48377020     0.07100
H1788       H  0.47553509  0.67226263  0.51714819     0.07100
H1789       H  0.00537963  0.81694777  0.47847668     0.07200
H1790       H  0.50478270  0.81948009  0.51237993     0.07200
H1791       H  0.00307820  0.74368649  0.43356684     0.03700
H1792       H  0.48417840  0.74711223  0.56238961     0.03700
C1793       C  0.27032952  0.78562133  0.46075685    -0.11200
C1794       C  0.24578642  0.76242424  0.45089673    -0.05000
C1795       C  0.22417874  0.73480869  0.45947986    -0.11100
C1796       C  0.22665212  0.73011244  0.47883860     0.09800
C1797       C  0.25219018  0.75336862  0.48896121    -0.02900
C1798       C  0.27430265  0.78119947  0.47983368     0.09600
C1799       C  0.29989104  0.80355996  0.48986141    -0.12900
C1800       C  0.30390050  0.79865973  0.50862816    -0.12900
C1801       C  0.28188756  0.77171850  0.51804402     0.09600
C1802       C  0.25564012  0.74889810  0.50822798    -0.02900
C1803       C  0.20472890  0.70307510  0.48827540    -0.13100
C1804       C  0.20776835  0.69895441  0.50745746    -0.13100
C1805       C  0.23305456  0.72156013  0.51763316     0.09800
C1806       C  0.23670407  0.71796580  0.53700729    -0.11100
C1807       C  0.26251005  0.74066991  0.54635102    -0.05000
C1808       C  0.28518007  0.76694563  0.53715016    -0.11200
H1809       H  0.31717957  0.82480805  0.48316326     0.07100
H1810       H  0.32408109  0.81637523  0.51584207     0.07100
H1811       H  0.18506932  0.68502602  0.48086683     0.07200
H1812       H  0.19030543  0.67791703  0.51427381     0.07200
H1813       H  0.24314286  0.76619524  0.43612603     0.03700
H1814       H  0.26548229  0.73740321  0.56115827     0.03700
C1815       C  0.23574145  0.98861199  0.46059383    -0.11200
C1816       C  0.26388020  0.99439680  0.45260961    -0.05000
C1817       C  0.28883440  0.99904484  0.46351814    -0.11100
C1818       C  0.28515944  0.99662431  0.48342445     0.09800
C1819       C  0.25675575  0.99117978  0.49193007    -0.02900
C1820       C  0.23209687  0.98763744  0.48046507     0.09600
C1821       C  0.20469544  0.98334606  0.48915235    -0.12900
C1822       C  0.20255790  0.48492360  0.50999228    -0.12900
C1823       C  0.22668466  0.48781535  0.52140851     0.09600
C1824       C  0.25387493  0.49081999  0.51248777    -0.02900
C1825       C  0.30870000  0.99886059  0.49499371    -0.13100
C1826       C  0.30460956  0.49510918  0.51429976    -0.13100
C1827       C  0.27780549  0.49162168  0.52348592     0.09800
C1828       C  0.27424072  0.48888855  0.54336235    -0.11100
C1829       C  0.24824686  0.48785378  0.55192180    -0.05000
C1830       C  0.22433649  0.48735528  0.54146768    -0.11200
H1831       H  0.18560700  0.98085124  0.48078301     0.07100
H1832       H  0.18113018  0.48155634  0.51618130     0.07100
H1833       H  0.33060661  0.00313373  0.48903119     0.07200
H1834       H  0.32293694  0.49480053  0.52201379     0.07200
H1835       H  0.26614913  0.99447344  0.43734589     0.03700
H1836       H  0.24704486  0.48823468  0.56719633     0.03700
O1837       O  0.01052434  0.95983843  0.01540502    -0.88600
C1838       C  0.05663112  0.52068343  0.97263994     0.87400
Mg1839     Mg  0.46159006  0.92634607  0.01459205     1.58100
O1840       O  0.03946053  0.55223028  0.01251671    -0.88400
O1841       O  0.04340045  0.49775838  0.03386472    -0.75700
C1842       C  0.39218531  0.00318555  0.98788048     0.92400
O1843       O  0.99707936  0.94789969  0.97103893    -0.75500
O1844       O  0.39022625  0.97710969  0.98547788    -0.83000
Mg1845     Mg  0.03808760  0.96157495  0.99093469     1.58000
C1846       C  0.00211499  0.61140208  0.00131646     0.92400
O1847       O  0.08321476  0.97205715  0.00589897    -0.81300
H1848       H  0.04323368  0.56273452  0.03995201    -0.06600
C1849       C  0.47846760  0.52889120  0.96867507     0.87300
O1850       O  0.44850280  0.95760002  0.03132754    -0.75800
O1851       O  0.05379487  0.51031222  0.98875245    -0.88600
O1852       O  0.02626913  0.60948797  0.99790684    -0.81400
C1853       C  0.11168184  0.60630638  0.99281938     0.92500
C1854       C  0.10903163  0.49682501  0.01119620     0.92300
Mg1855     Mg  0.46087950  0.53755469  0.00867530     1.58000
O1856       O  0.41677237  0.52690350  0.99274679    -0.81300
O1857       O  0.50147225  0.55098717  0.02893204    -0.75500
O1858       O  0.11032051  0.58163421  0.99842879    -0.81400
O1859       O  0.02257567  0.91122375  0.99514969    -0.83100
O1860       O  0.38818713  0.91736979  0.00213341    -0.81400
C1861       C  0.02889545  0.55575687  0.02756226     0.86800
O1862       O  0.44596501  0.98915308  0.01130783    -0.88500
O1863       O  0.48861522  0.53931231  0.98443965    -0.88700
O1864       O  0.45701431  0.00096309  0.96644854    -0.75700
Mg1865     Mg  0.07405594  0.53782121  0.01382250     1.58000
O1866       O  0.08783831  0.60771572  0.98847524    -0.83100
H1867       H  0.01127385  0.95511326  0.04333388    -0.06800
O1868       O  0.45939628  0.94613508  0.98797141    -0.88400
H1869       H  0.45547281  0.93526439  0.96059393    -0.06600
H1870       H  0.43588123  0.98887311  0.03871746    -0.06800
C1871       C  0.46991890  0.94250999  0.97293953     0.86700
C1872       C  0.02127747  0.96985432  0.03111177     0.87300
C1873       C  0.44282012  0.97889289  0.02747534     0.87400
H1874       H  0.48873647  0.54346915  0.95641316    -0.06800
O1875       O  0.05050319  0.54173793  0.96898521    -0.75800
Mg1876     Mg  0.42555390  0.96111554  0.98643690     1.58000
H1877       H  0.06365915  0.51098786  0.96127499    -0.06800
C1878       C  0.49661309  0.88779630  0.99948814     0.92400
O1879       O  0.41015733  0.89094972  0.01229719    -0.83000
C1880       C  0.38633447  0.89255052  0.00801058     0.92400
O1881       O  0.11056329  0.52264492  0.01411855    -0.83000
Mg1882     Mg  0.03709007  0.57254526  0.98598518     1.58200
O1883       O  0.47234965  0.88956150  0.00273764    -0.81400
O1884       O  0.47618358  0.58826262  0.00487141    -0.83100
O1885       O  0.34720203  0.64034200  0.34761926    -0.88600
C1886       C  0.38962181  0.70223292  0.30392592     0.87400
Mg1887     Mg  0.29835074  0.60601709  0.34759304     1.58100
O1888       O  0.37377490  0.73304294  0.34467595    -0.88400
O1889       O  0.37918927  0.67898548  0.36512527    -0.75700
C1890       C  0.22341179  0.67797804  0.32402998     0.92400
O1891       O  0.33096633  0.62779171  0.30307483    -0.75500
O1892       O  0.22277609  0.65295813  0.32005809    -0.83000
Mg1893     Mg  0.37329585  0.64347814  0.32180322     1.58000
C1894       C  0.33488171  0.78996281  0.33641064     0.92400
O1895       O  0.42100935  0.65782116  0.33436416    -0.81300
H1896       H  0.37998409  0.74428883  0.37198755    -0.06600
C1897       C  0.31076413  0.70828120  0.30247120     0.87300
O1898       O  0.28510307  0.63627434  0.36507956    -0.75800
O1899       O  0.38667433  0.69144959  0.31991459    -0.88600
O1900       O  0.35895014  0.78899657  0.33125166    -0.81400
C1901       C  0.44611057  0.78787634  0.32469221     0.92500
C1902       C  0.44544431  0.68209053  0.33977429     0.92300
Mg1903     Mg  0.29472257  0.71523412  0.34356524     1.58000
O1904       O  0.24790073  0.70187801  0.32979806    -0.81300
O1905       O  0.33659061  0.73004290  0.36266314    -0.75500
O1906       O  0.44368103  0.76248485  0.32955069    -0.81400
O1907       O  0.35894672  0.59265978  0.32504338    -0.83100
O1908       O  0.22465885  0.59538015  0.33549074    -0.81400
C1909       C  0.36440480  0.73648511  0.36016666     0.86800
O1910       O  0.28090905  0.66726855  0.34546277    -0.88500
O1911       O  0.32167965  0.71911153  0.31803853    -0.88700
O1912       O  0.28986508  0.68023607  0.30055260    -0.75700
Mg1913     Mg  0.40819324  0.71923133  0.34496264     1.58000
O1914       O  0.42257967  0.79014110  0.32045600    -0.83100
H1915       H  0.34950013  0.63625512  0.37547992    -0.06800
O1916       O  0.29445429  0.62572260  0.32121702    -0.88400
H1917       H  0.28727884  0.61307684  0.29414760    -0.06600
H1918       H  0.27154156  0.66659130  0.37301070    -0.06800
C1919       C  0.30325969  0.62147509  0.30576752     0.86700
C1920       C  0.35840854  0.65094274  0.36315915     0.87300
C1921       C  0.27849278  0.65699239  0.36155169     0.87400
H1922       H  0.31995018  0.72279449  0.29009239    -0.06800
O1923       O  0.38391363  0.72365597  0.30063954    -0.75800
Mg1924     Mg  0.26004781  0.63956229  0.32039780     1.58000
H1925       H  0.39649468  0.69270409  0.29238872    -0.06800
C1926       C  0.33363902  0.56876428  0.33017454     0.92400
O1927       O  0.24692990  0.56961728  0.34630072    -0.83000
C1928       C  0.22307283  0.57076141  0.34140992     0.92400
O1929       O  0.44549715  0.70650334  0.34447559    -0.83000
Mg1930     Mg  0.37067863  0.75363250  0.31855857     1.58200
O1931       O  0.30983902  0.57004175  0.33556617    -0.81400
O1932       O  0.30933855  0.76589247  0.34088901    -0.83100
O1933       O  0.15039820  0.85850157  0.68221125    -0.88600
C1934       C  0.11362247  0.79744817  0.63813216     0.87400
Mg1935     Mg  0.19815485  0.89521568  0.68273596     1.58100
O1936       O  0.12818557  0.76700410  0.67924449    -0.88400
O1937       O  0.11717834  0.81893962  0.69902750    -0.75700
C1938       C  0.28102978  0.82947394  0.66282992     0.92400
O1939       O  0.16953509  0.87172245  0.63824771    -0.75500
O1940       O  0.28209794  0.85522464  0.66132685    -0.83000
Mg1941     Mg  0.12555397  0.85470986  0.65671239     1.58000
C1942       C  0.17085534  0.71383481  0.67066813     0.92400
O1943       O  0.07784757  0.83901691  0.67087533    -0.81300
H1944       H  0.12015744  0.75486932  0.70645457    -0.06600
C1945       C  0.19678196  0.79706814  0.63852126     0.87300
O1946       O  0.21165973  0.86628619  0.70121304    -0.75800
O1947       O  0.11439725  0.80716785  0.65424299    -0.88600
O1948       O  0.14671368  0.71433281  0.66591582    -0.81400
C1949       C  0.06003381  0.70879924  0.65759106     0.92500
C1950       C  0.05291638  0.81316759  0.67341796     0.92300
Mg1951     Mg  0.20826748  0.78871194  0.67896753     1.58000
O1952       O  0.25544358  0.80393057  0.66413838    -0.81300
O1953       O  0.16469063  0.77129126  0.69774284    -0.75500
O1954       O  0.06030356  0.73266645  0.66389489    -0.81400
O1955       O  0.13755005  0.90528041  0.65980941    -0.83100
O1956       O  0.27388543  0.91138568  0.67355055    -0.81400
C1957       C  0.13670965  0.76367520  0.69486025     0.86800
O1958       O  0.21958023  0.83648006  0.68218128    -0.88500
O1959       O  0.18327755  0.78566041  0.65360252    -0.88700
O1960       O  0.21806433  0.82518266  0.63739899    -0.75700
Mg1961     Mg  0.09186456  0.77802996  0.67869983     1.58000
O1962       O  0.08474929  0.70896721  0.65279976    -0.83100
H1963       H  0.14462018  0.86166583  0.70992489    -0.06800
O1964       O  0.20625519  0.87664794  0.65681852    -0.88400
H1965       H  0.21394786  0.88764276  0.62943461    -0.06600
H1966       H  0.22561424  0.83684554  0.71002108    -0.06800
C1967       C  0.19753377  0.87931241  0.64110787     0.86700
C1968       C  0.13766076  0.84725249  0.69749460     0.87300
C1969       C  0.21949835  0.84616822  0.69821787     0.87400
H1970       H  0.19009378  0.78294968  0.62596719    -0.06800
O1971       O  0.12145160  0.77748851  0.63473080    -0.75800
Mg1972     Mg  0.24298934  0.86590977  0.65807703     1.58000
H1973       H  0.10694347  0.80676966  0.62659775    -0.06800
C1974       C  0.16303320  0.92989412  0.66339300     0.92400
O1975       O  0.24793406  0.93468367  0.68269612    -0.83000
C1976       C  0.27310302  0.93526703  0.67885346     0.92400
O1977       O  0.05282730  0.78815654  0.67609313    -0.83000
Mg1978     Mg  0.13526633  0.74868123  0.65279061     1.58200
O1979       O  0.18706428  0.92938829  0.66846872    -0.81400
O1980       O  0.19607459  0.73827439  0.67491300    -0.83100
C1981       C  0.34131353  0.80910209  0.75255097    -0.06400
C1982       C  0.36353221  0.81982853  0.76699796    -0.17600
C1983       C  0.36179479  0.83666347  0.78231196     0.10800
C1984       C  0.33666098  0.84180762  0.78373118    -0.06300
C1985       C  0.31238994  0.82758598  0.77076351    -0.17600
C1986       C  0.31432253  0.81110668  0.75529345     0.10800
S1987       S  0.39379638  0.85503269  0.79842777    -0.32600
S1988       S  0.28249982  0.79469028  0.73907862    -0.32600
H1989       H  0.28777799  0.77107868  0.73278484     0.28800
H1990       H  0.40932697  0.83967932  0.79223390     0.28800
H1991       H  0.38428701  0.81831758  0.76523243     0.19400
H1992       H  0.29280322  0.83120646  0.77197905     0.19400
C1993       C  0.34697777  0.80076199  0.58146063    -0.06400
C1994       C  0.32859687  0.81398993  0.57801732    -0.17600
C1995       C  0.31151127  0.80738486  0.56154722     0.10800
C1996       C  0.31264846  0.78692425  0.54834835    -0.06300
C1997       C  0.33360741  0.77644210  0.55081554    -0.17600
C1998       C  0.35069260  0.78298995  0.56730914     0.10800
S1999       S  0.28570658  0.82245985  0.55930261    -0.32600
S2000       S  0.37222226  0.76357360  0.57086351    -0.32600
H2001       H  0.40014205  0.79090990  0.57436738     0.28800
H2002       H  0.28268087  0.81923540  0.53964721     0.28800
H2003       H  0.32633096  0.82834161  0.58866074     0.19400
H2004       H  0.33387624  0.76008838  0.54087687     0.19400
C2005       C  0.49233527  0.83034177  0.58110528    -0.06400
C2006       C  0.47177747  0.82269325  0.56589034    -0.17600
C2007       C  0.47358471  0.80680711  0.55000680     0.10800
C2008       C  0.49774871  0.80015124  0.54854265    -0.06300
C2009       C  0.02167275  0.81220543  0.56273044    -0.17600
C2010       C  0.51876495  0.82727974  0.57839928     0.10800
S2011       S  0.44223470  0.79092501  0.53333134    -0.32600
S2012       S  0.04921999  0.83908711  0.59634030    -0.32600
H2013       H  0.04539772  0.86321807  0.60341932     0.28800
H2014       H  0.42756539  0.80691751  0.53989446     0.28800
H2015       H  0.45206165  0.82594074  0.56732264     0.19400
H2016       H  0.04043445  0.80731516  0.56159670     0.19400
C2017       C  0.37738344  0.99107735  0.75366642    -0.06400
C2018       C  0.39917220  0.98597063  0.76274977    -0.17600
C2019       C  0.39032321  0.96481368  0.77766875     0.10800
C2020       C  0.35893462  0.94819695  0.78380026    -0.06300
C2021       C  0.33751997  0.95456158  0.77550803    -0.17600
C2022       C  0.34642136  0.97605941  0.76079132     0.10800
S2023       S  0.41969336  0.95824683  0.78739582    -0.32600
S2024       S  0.31727735  0.48514154  0.75192943    -0.32600
H2025       H  0.33838482  0.51661900  0.74856034     0.28800
H2026       H  0.40543059  0.94819767  0.80522103     0.28800
H2027       H  0.42300250  0.99752443  0.75768026     0.19400
H2028       H  0.31340883  0.94177635  0.78002676     0.19400
C2029       C  0.33932985  0.50059875  0.58600626    -0.06400
C2030       C  0.31112894  0.47251882  0.58482361    -0.17600
C2031       C  0.29100454  0.46655498  0.56972419     0.10800
C2032       C  0.29821927  0.48979267  0.55608406    -0.06300
C2033       C  0.32762657  0.51638955  0.55628536    -0.17600
C2034       C  0.34886711  0.52106561  0.57031817     0.10800
S2035       S  0.25491837  0.92887815  0.56961735    -0.32600
S2036       S  0.38732885  0.55419421  0.56751134    -0.32600
H2037       H  0.40210598  0.54079497  0.57710813     0.28800
H2038       H  0.25062308  0.92829720  0.55002449     0.28800
H2039       H  0.30377227  0.45589911  0.59622090     0.19400
H2040       H  0.33388434  0.53410434  0.54567544     0.19400
C2041       C  0.45040178  0.65459520  0.58340286    -0.06400
C2042       C  0.48205467  0.67123622  0.57818493    -0.17600
C2043       C  0.49245552  0.69022948  0.56221461     0.10800
C2044       C  0.47094169  0.69287405  0.55093065    -0.06300
C2045       C  0.43921685  0.67513290  0.55540943    -0.17600
C2046       C  0.42871777  0.65636178  0.57154532     0.10800
S2047       S  0.53370734  0.71219043  0.55766738    -0.32600
S2048       S  0.38782464  0.63779338  0.57697042    -0.32600
H2049       H  0.39216364  0.64661591  0.59606514     0.28800
H2050       H  0.53175914  0.71561619  0.53816654     0.28800
H2051       H  0.49908125  0.66983136  0.58675830     0.19400
H2052       H  0.42271166  0.67787851  0.54710482     0.19400
C2053       C  0.00975689  0.87210867  0.78843205    -0.06400
C2054       C  0.01603841  0.85077296  0.77959094    -0.17600
C2055       C  0.00227525  0.83723389  0.76250119     0.10800
C2056       C  0.98165415  0.84509171  0.75426093    -0.06300
C2057       C  0.97280171  0.86371465  0.76420855    -0.17600
C2058       C  0.98693887  0.87760734  0.78112055     0.10800
S2059       S  0.51682156  0.81320495  0.74943915    -0.32600
S2060       S  0.97831176  0.90545991  0.79130527    -0.32600
H2061       H  0.98687284  0.90323320  0.80976290     0.28800
H2062       H  0.48825639  0.79415083  0.74066498     0.28800
H2063       H  0.03387257  0.84685317  0.78514203     0.19400
H2064       H  0.95650232  0.86934059  0.75807919     0.19400
C2065       C  0.49687387  0.64640722  0.74868224    -0.06400
C2066       C  0.49128538  0.62452341  0.76284994    -0.17600
C2067       C  0.01364377  0.63031557  0.77731152     0.10800
C2068       C  0.04156484  0.65897438  0.77760889    -0.06300
C2069       C  0.04579447  0.68208106  0.76484904    -0.17600
C2070       C  0.02383716  0.67642555  0.75095585     0.10800
S2071       S  0.00537100  0.59909251  0.79326359    -0.32600
S2072       S  0.03127104  0.70823201  0.73582556    -0.32600
H2073       H  0.49937268  0.69938735  0.73345251     0.28800
H2074       H  0.03589640  0.60490541  0.79444050     0.28800
H2075       H  0.47115171  0.60154487  0.76214113     0.19400
H2076       H  0.06688481  0.70439903  0.76533646     0.19400
C2077       C  0.10870445  0.96518774  0.78671143    -0.06400
C2078       C  0.12322680  0.95410838  0.77441332    -0.17600
C2079       C  0.13239357  0.96593527  0.75610257     0.10800
C2080       C  0.12838969  0.99044921  0.75008164    -0.06300
C2081       C  0.11607765  0.50349332  0.76264951    -0.17600
C2082       C  0.10681568  0.99113236  0.78119931     0.10800
S2083       S  0.14844567  0.94845715  0.74099521    -0.32600
S2084       S  0.08519939  0.50577356  0.79442380    -0.32600
H2085       H  0.08958497  0.49602346  0.81201791     0.28800
H2086       H  0.12287833  0.93596589  0.72886618     0.28800
H2087       H  0.12416850  0.93376399  0.77834077     0.19400
H2088       H  0.11274814  0.52215418  0.75803131     0.19400
C2089       C  0.17146788  0.64101741  0.75184368    -0.06400
C2090       C  0.15226429  0.61944557  0.76563526    -0.17600
C2091       C  0.13528393  0.62624875  0.77877342     0.10800
C2092       C  0.13807590  0.65571017  0.77866791    -0.06300
C2093       C  0.15956388  0.67825507  0.76619827    -0.17600
C2094       C  0.17659978  0.67144270  0.75307095     0.10800
S2095       S  0.10889646  0.59547643  0.79433467    -0.32600
S2096       S  0.20407616  0.70245350  0.73810295    -0.32600
H2097       H  0.22412660  0.69059145  0.73582198     0.28800
H2098       H  0.08602823  0.60382932  0.79557157     0.28800
H2099       H  0.14809381  0.59607803  0.76513217     0.19400
H2100       H  0.16236491  0.70110790  0.76629565     0.19400
C2101       C  0.16553280  0.50379654  0.57944132    -0.06400
C2102       C  0.16790725  0.47714960  0.58140364    -0.17600
C2103       C  0.18366331  0.46918447  0.56801266     0.10800
C2104       C  0.19906306  0.48890679  0.55244408    -0.06300
C2105       C  0.19407548  0.51372267  0.54943546    -0.17600
C2106       C  0.17644108  0.52046786  0.56220766     0.10800
S2107       S  0.18431964  0.43409358  0.57209361    -0.32600
S2108       S  0.16931422  0.55089743  0.55565736    -0.32600
H2109       H  0.13863505  0.53557769  0.56272649     0.28800
H2110       H  0.18961218  0.42947015  0.55313478     0.28800
H2111       H  0.15862032  0.46296077  0.59393661     0.19400
H2112       H  0.20494587  0.52874512  0.53738582     0.19400
C2113       C  0.20030474  0.65670366  0.58253421    -0.06400
C2114       C  0.18990962  0.67758410  0.57947420    -0.17600
C2115       C  0.19737186  0.69475457  0.56273936     0.10800
C2116       C  0.21565348  0.69111194  0.54880510    -0.06300
C2117       C  0.22352640  0.66819590  0.55106973    -0.17600
C2118       C  0.21641505  0.65123194  0.56784997     0.10800
S2119       S  0.18638304  0.72367823  0.55988918    -0.32600
S2120       S  0.23173872  0.62575559  0.57040701    -0.32600
H2121       H  0.24026368  0.63326636  0.58936302     0.28800
H2122       H  0.16931479  0.71750916  0.57686758     0.28800
H2123       H  0.17672869  0.68109430  0.59046869     0.19400
H2124       H  0.23839445  0.66603389  0.54063053     0.19400
C2125       C  0.98516650  0.81136364  0.91702386    -0.06400
C2126       C  0.98541129  0.83950040  0.91831358    -0.17600
C2127       C  0.00142723  0.86301661  0.90503984     0.10800
C2128       C  0.01773913  0.85857262  0.89012568    -0.06300
C2129       C  0.01400822  0.82921815  0.88736651    -0.17600
C2130       C  0.99707137  0.80530294  0.90028429     0.10800
S2131       S  0.00228890  0.89901413  0.90871244    -0.32600
S2132       S  0.49363440  0.76835091  0.89527494    -0.32600
H2133       H  0.46449509  0.75142201  0.90433387     0.28800
H2134       H  0.00768510  0.90835069  0.88970035     0.28800
H2135       H  0.97550513  0.84444664  0.93059335     0.19400
H2136       H  0.02553139  0.82530496  0.87551016     0.19400
C2137       C  0.03544457  0.70449797  0.91428940    -0.06400
C2138       C  0.02494555  0.67298784  0.91143560    -0.17600
C2139       C  0.03265467  0.66250736  0.89502313     0.10800
C2140       C  0.05138825  0.68373861  0.88088937    -0.06300
C2141       C  0.05998147  0.71480869  0.88298543    -0.17600
C2142       C  0.05264505  0.72558922  0.89950371     0.10800
S2143       S  0.02041766  0.62208023  0.89359519    -0.32600
S2144       S  0.06865955  0.76676138  0.90204748    -0.32600
H2145       H  0.08079289  0.77530901  0.88361887     0.28800
H2146       H  0.02334196  0.62138579  0.87386060     0.28800
H2147       H  0.01113906  0.65632054  0.92226499     0.19400
H2148       H  0.07532717  0.73116512  0.87246006     0.19400
C2149       C  0.32693924  0.81014481  0.92016152    -0.06400
C2150       C  0.30323279  0.79639292  0.90666406    -0.17600
C2151       C  0.30302854  0.81262376  0.89078146     0.10800
C2152       C  0.32774598  0.84284413  0.88767207    -0.06300
C2153       C  0.35335523  0.85511212  0.89969430    -0.17600
C2154       C  0.35337621  0.83910286  0.91587332     0.10800
S2155       S  0.26945730  0.79440440  0.87588080    -0.32600
S2156       S  0.38667389  0.85667149  0.93109601    -0.32600
H2157       H  0.40596722  0.88169616  0.91923544     0.28800
H2158       H  0.26743335  0.82090229  0.87262145     0.28800
H2159       H  0.28308959  0.77386593  0.90929017     0.19400
H2160       H  0.37241686  0.87828223  0.89706607     0.19400
C2161       C  0.14756253  0.68439865  0.88058547    -0.06400
C2162       C  0.16791942  0.71572435  0.88420267    -0.17600
C2163       C  0.18480418  0.72517924  0.90083075     0.10800
C2164       C  0.18310130  0.70275014  0.91356306    -0.06300
C2165       C  0.16454834  0.67132450  0.90912159    -0.17600
C2166       C  0.14658920  0.66195847  0.89286069     0.10800
S2167       S  0.20407735  0.76583587  0.90617408    -0.32600
S2168       S  0.12066699  0.62121754  0.88936719    -0.32600
H2169       H  0.11748071  0.62301088  0.86982201     0.28800
H2170       H  0.19396123  0.76162980  0.92512743     0.28800
H2171       H  0.16762801  0.73296233  0.87519664     0.19400
H2172       H  0.16323958  0.65392227  0.91867644     0.19400
C2173       C  0.12072143  0.95232819  0.88998243    -0.06400
C2174       C  0.11901647  0.97411938  0.90165431    -0.17600
C2175       C  0.14049162  0.98920179  0.91614689     0.10800
C2176       C  0.16429425  0.98220776  0.91907708    -0.06300
C2177       C  0.16722506  0.96223716  0.90624972    -0.17600
C2178       C  0.14570260  0.94703701  0.89200805     0.10800
S2179       S  0.13658204  0.01659309  0.93086618    -0.32600
S2180       S  0.14968334  0.91848923  0.87859596    -0.32600
H2181       H  0.13292678  0.91764193  0.86273993     0.28800
H2182       H  0.11035953  0.01412914  0.92207661     0.28800
H2183       H  0.09974504  0.97801300  0.89999681     0.19400
H2184       H  0.19021185  0.46821810  0.90416444     0.19400
C2185       C  0.30289296  0.92465120  0.88365774    -0.06400
C2186       C  0.32388138  0.95344162  0.89127526    -0.17600
C2187       C  0.31483399  0.96631607  0.90586001     0.10800
C2188       C  0.28437678  0.94950208  0.91368192    -0.06300
C2189       C  0.26279681  0.92176559  0.90507685    -0.17600
C2190       C  0.27166864  0.90932459  0.89013823     0.10800
S2191       S  0.34006209  0.50263037  0.91250914    -0.32600
S2192       S  0.24271452  0.87247949  0.88089305    -0.32600
H2193       H  0.25679592  0.87621376  0.86302757     0.28800
H2194       H  0.31838696  0.51195062  0.91670804     0.28800
H2195       H  0.34782664  0.96533442  0.88640274     0.19400
H2196       H  0.23923589  0.90896112  0.91056680     0.19400
C2197       C  0.44456471  0.81250227  0.12045250    -0.06400
C2198       C  0.46492747  0.83596418  0.10804832    -0.17600
C2199       C  0.47699558  0.82936339  0.09182402     0.10800
C2200       C  0.46775577  0.79831679  0.08739358    -0.06300
C2201       C  0.44933282  0.77527947  0.10067741    -0.17600
C2202       C  0.43785149  0.78203222  0.11704898     0.10800
S2203       S  0.00383834  0.86212982  0.07625683    -0.32600
S2204       S  0.41188319  0.75020356  0.13205229    -0.32600
H2205       H  0.41735506  0.76780977  0.14852551     0.28800
H2206       H  0.02395759  0.85073024  0.07247441     0.28800
H2207       H  0.46991791  0.85937350  0.11040506     0.19400
H2208       H  0.44252898  0.75145279  0.09791141     0.19400
C2209       C  0.34997543  0.81655319  0.11842613    -0.06400
C2210       C  0.31959871  0.79167003  0.11979050    -0.17600
C2211       C  0.29877632  0.78576101  0.10532039     0.10800
C2212       C  0.30983066  0.80256756  0.08824345    -0.06300
C2213       C  0.33906784  0.82961110  0.08795118    -0.17600
C2214       C  0.35880802  0.83728355  0.10316544     0.10800
S2215       S  0.25871186  0.75760072  0.10986612    -0.32600
S2216       S  0.39604758  0.87235209  0.10165666    -0.32600
H2217       H  0.40055663  0.87629583  0.12124311     0.28800
H2218       H  0.24702516  0.77286679  0.09911666     0.28800
H2219       H  0.31231632  0.77645838  0.13193755     0.19400
H2220       H  0.34737148  0.84414899  0.07550759     0.19400
C2221       C  0.34947055  0.00127901  0.42037189    -0.06400
C2222       C  0.33985812  0.97886073  0.43479613    -0.17600
C2223       C  0.32269813  0.97920283  0.45052033     0.10800
C2224       C  0.31666276  0.00359501  0.45265089    -0.06300
C2225       C  0.33023382  0.52880520  0.43994936    -0.17600
C2226       C  0.34756954  0.02794339  0.42401827     0.10800
S2227       S  0.30422606  0.94574272  0.46577190    -0.32600
S2228       S  0.36315239  0.56012033  0.40807067    -0.32600
H2229       H  0.38610278  0.55438149  0.40074413     0.28800
H2230       H  0.32183562  0.93247061  0.45972516     0.28800
H2231       H  0.34204487  0.95870536  0.43263400     0.19400
H2232       H  0.32676172  0.54831211  0.44169350     0.19400
C2233       C  0.30825332  0.85351659  0.41868184    -0.06400
C2234       C  0.32047953  0.83407087  0.42123214    -0.17600
C2235       C  0.31183266  0.81438355  0.43673541     0.10800
C2236       C  0.29036971  0.81398348  0.44999121    -0.06300
C2237       C  0.28028704  0.83538323  0.44838833    -0.17600
C2238       C  0.28909372  0.85528082  0.43285936     0.10800
S2239       S  0.32553326  0.78734905  0.43746669    -0.32600
S2240       S  0.27120681  0.87846679  0.43041021    -0.32600
H2241       H  0.29911220  0.90572051  0.42623379     0.28800
H2242       H  0.32162258  0.78216391  0.45702435     0.28800
H2243       H  0.33554919  0.83295419  0.41048452     0.19400
H2244       H  0.26309864  0.83446485  0.45829350     0.19400
C2245       C  0.35542482  0.84361378  0.21990637    -0.06400
C2246       C  0.34787050  0.86671325  0.21781691    -0.17600
C2247       C  0.33130561  0.87222882  0.23195292     0.10800
C2248       C  0.32314806  0.85476951  0.24900172    -0.06300
C2249       C  0.32718258  0.82901983  0.24974469    -0.17600
C2250       C  0.34313967  0.82329236  0.23543144     0.10800
S2251       S  0.32370555  0.90346484  0.22831992    -0.32600
S2252       S  0.34997113  0.79161876  0.23871640    -0.32600
H2253       H  0.35441201  0.78770035  0.21949144     0.28800
H2254       H  0.33282186  0.90904333  0.20920463     0.28800
H2255       H  0.35712519  0.88199615  0.20574232     0.19400
H2256       H  0.32024883  0.81469021  0.26228244     0.19400
C2257       C  0.02001007  0.83987350  0.41544397    -0.06400
C2258       C  0.04186787  0.84479886  0.42939714    -0.17600
C2259       C  0.03591074  0.82274187  0.44332094     0.10800
C2260       C  0.00666774  0.79547209  0.44427023    -0.06300
C2261       C  0.98400621  0.79123749  0.43112781    -0.17600
C2262       C  0.99022920  0.81306633  0.41685880     0.10800
S2263       S  0.06756534  0.82977232  0.45845564    -0.32600
S2264       S  0.95927783  0.80522377  0.40094555    -0.32600
H2265       H  0.96819421  0.83640670  0.39836511     0.28800
H2266       H  0.06068090  0.79898595  0.45937848     0.28800
H2267       H  0.06491803  0.86491581  0.42859171     0.19400
H2268       H  0.96149478  0.77032694  0.43171242     0.19400
C2269       C  0.17339284  0.96245504  0.41462530    -0.06400
C2270       C  0.19711866  0.99330863  0.41671322    -0.17600
C2271       C  0.21547200  0.00326169  0.43272283     0.10800
C2272       C  0.21074500  0.98188050  0.44706446    -0.06300
C2273       C  0.18607603  0.95135605  0.44555394    -0.17600
C2274       C  0.16713901  0.94140529  0.42954184     0.10800
S2275       S  0.24590635  0.04323471  0.43350310    -0.32600
S2276       S  0.13714638  0.90136535  0.42769598    -0.32600
H2277       H  0.14025008  0.89234721  0.44590387     0.28800
H2278       H  0.24822501  0.04501197  0.45326756     0.28800
H2279       H  0.20156301  0.00998493  0.40569559     0.19400
H2280       H  0.18304959  0.93486997  0.45636054     0.19400
C2281       C  0.50126052  0.88826591  0.25077009    -0.06400
C2282       C  0.50282711  0.90954701  0.23747862    -0.17600
C2283       C  0.48359485  0.89952928  0.22174762     0.10800
C2284       C  0.46277862  0.86765527  0.21923424    -0.06300
C2285       C  0.46327801  0.84637343  0.23161411    -0.17600
C2286       C  0.48239883  0.85626114  0.24726830     0.10800
S2287       S  0.48436125  0.92849634  0.20647776    -0.32600
S2288       S  0.98012766  0.82749106  0.26250163    -0.32600
H2289       H  0.01157619  0.84361944  0.26755355     0.28800
H2290       H  0.47319991  0.90968236  0.19043333     0.28800
H2291       H  0.51774187  0.93405811  0.23990850     0.19400
H2292       H  0.44711484  0.82192954  0.22975502     0.19400
C2293       C  0.47221330  0.64406361  0.11146019    -0.06400
C2294       C  0.49563639  0.64239272  0.10133164    -0.17600
C2295       C  0.51381219  0.66467547  0.08770775     0.10800
C2296       C  0.50830041  0.68918514  0.08410046    -0.06300
C2297       C  0.48720557  0.69254380  0.09584724    -0.17600
C2298       C  0.46867884  0.66998866  0.10914418     0.10800
S2299       S  0.54316798  0.66091894  0.07474936    -0.32600
S2300       S  0.43955625  0.67468698  0.12162594    -0.32600
H2301       H  0.41709244  0.64323548  0.12309864     0.28800
H2302       H  0.53822170  0.63375949  0.08358917     0.28800
H2303       H  0.49849613  0.62264186  0.10346729     0.19400
H2304       H  0.48281373  0.71128816  0.09346194     0.19400
C2305       C  0.33620084  0.51159090  0.07897227    -0.06400
C2306       C  0.36589802  0.51496539  0.07751068    -0.17600
C2307       C  0.38765950  0.52893962  0.09186789     0.10800
C2308       C  0.38011134  0.54060797  0.10801284    -0.06300
C2309       C  0.34953169  0.53431881  0.11041379    -0.17600
C2310       C  0.32728374  0.51928692  0.09635934     0.10800
S2311       S  0.42629399  0.03241806  0.08784838    -0.32600
S2312       S  0.28800933  0.51095996  0.10083050    -0.32600
H2313       H  0.29248697  0.52274384  0.11928540     0.28800
H2314       H  0.43272763  0.53515457  0.10748523     0.28800
H2315       H  0.37371913  0.00890855  0.06443909     0.19400
H2316       H  0.34359154  0.54285729  0.12289826     0.19400
C2317       C  0.36230388  0.50082142  0.24721921    -0.06400
C2318       C  0.37768273  0.49143317  0.23442125    -0.17600
C2319       C  0.38752113  0.50554206  0.21668347     0.10800
C2320       C  0.38143723  0.52901713  0.21167735    -0.06300
C2321       C  0.36221736  0.53507435  0.22337895    -0.17600
C2322       C  0.35222581  0.02127751  0.24071835     0.10800
S2323       S  0.41084711  0.49620535  0.20142871    -0.32600
S2324       S  0.32842523  0.03115479  0.25510283    -0.32600
H2325       H  0.31132278  0.00208728  0.26384642     0.28800
H2326       H  0.40668071  0.47054909  0.21181051     0.28800
H2327       H  0.38387888  0.47465590  0.23883575     0.19400
H2328       H  0.35749317  0.55315103  0.21951909     0.19400
C2329       C  0.17896713  0.65141755  0.11382029    -0.06400
C2330       C  0.15045119  0.64569347  0.10659667    -0.17600
C2331       C  0.14921099  0.66145545  0.09052541     0.10800
C2332       C  0.17705024  0.68323877  0.08129165    -0.06300
C2333       C  0.20540020  0.68952221  0.08902925    -0.17600
C2334       C  0.20668036  0.67405766  0.10501435     0.10800
S2335       S  0.11158948  0.65222097  0.08226576    -0.32600
S2336       S  0.24442541  0.68171622  0.11230410    -0.32600
H2337       H  0.23656830  0.67493993  0.13149746     0.28800
H2338       H  0.12128932  0.68162839  0.07474651     0.28800
H2339       H  0.12903867  0.62777778  0.11294485     0.19400
H2340       H  0.22696441  0.70551508  0.08192931     0.19400
C2341       C  0.20320303  0.56973528  0.11773015    -0.06400
C2342       C  0.18089399  0.54284332  0.10879552    -0.17600
C2343       C  0.18860357  0.53133886  0.09282232     0.10800
C2344       C  0.21925337  0.54767532  0.08529374    -0.06300
C2345       C  0.24210868  0.57291700  0.09535401    -0.17600
C2346       C  0.23442366  0.58394693  0.11150888     0.10800
S2347       S  0.15903852  0.49578675  0.08234782    -0.32600
S2348       S  0.26489996  0.61800024  0.12259754    -0.32600
H2349       H  0.25102770  0.61176589  0.14063564     0.28800
H2350       H  0.13523863  0.48950651  0.09553816     0.28800
H2351       H  0.15699406  0.53208932  0.11363209     0.19400
H2352       H  0.26586743  0.58499161  0.09015315     0.19400
C2353       C  0.17373159  0.55855600  0.22070129    -0.06400
C2354       C  0.19407478  0.56449269  0.23572890    -0.17600
C2355       C  0.18694321  0.54276151  0.25021381     0.10800
C2356       C  0.15680271  0.01378224  0.24974597    -0.06300
C2357       C  0.13762608  0.00675959  0.23391519    -0.17600
C2358       C  0.14443267  0.02831026  0.21947318     0.10800
S2359       S  0.21526692  0.55275045  0.26842310    -0.32600
S2360       S  0.11557345  0.01811014  0.20154980    -0.32600
H2361       H  0.11748239  0.04699742  0.20094857     0.28800
H2362       H  0.20821098  0.52220881  0.27155329     0.28800
H2363       H  0.21516715  0.58675816  0.23655306     0.19400
H2364       H  0.11557976  0.98534360  0.23352483     0.19400
C2365       C  0.01623235  0.66712668  0.41948399    -0.06400
C2366       C  0.03812161  0.68460419  0.43327225    -0.17600
C2367       C  0.03115728  0.69910515  0.44787919     0.10800
C2368       C  0.00127417  0.69559730  0.44918488    -0.06300
C2369       C  0.97824172  0.67501953  0.43684829    -0.17600
C2370       C  0.98535157  0.66059870  0.42208419     0.10800
S2371       S  0.06285064  0.72577940  0.46240276    -0.32600
S2372       S  0.95525811  0.63515176  0.40614686    -0.32600
H2373       H  0.93027257  0.63376517  0.41642996     0.28800
H2374       H  0.04541995  0.71860245  0.47920108     0.28800
H2375       H  0.06181271  0.68968126  0.43160747     0.19400
H2376       H  0.95531303  0.67224213  0.43786603     0.19400
C2377       C  0.16753232  0.70345403  0.41282710    -0.06400
C2378       C  0.19071906  0.69571409  0.41465851    -0.17600
C2379       C  0.20622017  0.70027146  0.43166437     0.10800
C2380       C  0.19892937  0.71341094  0.44711253    -0.06300
C2381       C  0.17355940  0.71795010  0.44595812    -0.17600
C2382       C  0.15818747  0.71373146  0.42892190     0.10800
S2383       S  0.23768681  0.69245598  0.43230929    -0.32600
S2384       S  0.12964438  0.72558274  0.42820384    -0.32600
H2385       H  0.13886733  0.73965819  0.41033974     0.28800
H2386       H  0.23852463  0.69115037  0.45209371     0.28800
H2387       H  0.19726364  0.68665156  0.40266499     0.19400
H2388       H  0.16841327  0.72877119  0.45762848     0.19400
C2389       C  0.46637768  0.63303838  0.21536478    -0.06400
C2390       C  0.49838182  0.64462578  0.21514136    -0.17600
C2391       C  0.01510408  0.65828090  0.23144705     0.10800
C2392       C  0.50091387  0.65769255  0.24851013    -0.06300
C2393       C  0.46958553  0.64954148  0.24798479    -0.17600
C2394       C  0.45262209  0.63859385  0.23135229     0.10800
S2395       S  0.05653329  0.67675316  0.22838352    -0.32600
S2396       S  0.41252889  0.62902993  0.23101548    -0.32600
H2397       H  0.41187728  0.64052788  0.24904961     0.28800
H2398       H  0.06263817  0.70231085  0.23967566     0.28800
H2399       H  0.00833037  0.64179994  0.20290373     0.19400
H2400       H  0.45802584  0.65069761  0.26072877     0.19400
C2401       C  0.14557676  0.67875364  0.24536752    -0.06400
C2402       C  0.17711032  0.69126945  0.24062587    -0.17600
C2403       C  0.18667262  0.67733896  0.22693583     0.10800
C2404       C  0.16424422  0.65062820  0.21747251    -0.06300
C2405       C  0.13278539  0.63902317  0.22156148    -0.17600
C2406       C  0.12330994  0.65196218  0.23577175     0.10800
S2407       S  0.22777597  0.69325176  0.22324363    -0.32600
S2408       S  0.08323232  0.62976800  0.24317173    -0.32600
H2409       H  0.09012270  0.63151839  0.26242624     0.28800
H2410       H  0.22589573  0.68145587  0.20498881     0.28800
H2411       H  0.19447291  0.71122212  0.24819925     0.19400
H2412       H  0.11562294  0.61777131  0.21494181     0.19400
O2413       O  0.58310136  0.19947380  0.36371682    -0.88600
C2414       C  0.60784969  0.13640014  0.34671506     0.87400
Mg2415     Mg  0.53864424  0.19476716  0.35874465     1.58100
O2416       O  0.64148728  0.20613013  0.32058255    -0.88400
O2417       O  0.63232490  0.23280969  0.35971074    -0.75700
C2418       C  0.51589584  0.16269098  0.26761058     0.92400
O2419       O  0.53791599  0.12636036  0.35988209    -0.75500
O2420       O  0.00030036  0.15893121  0.28285839    -0.83000
Mg2421     Mg  0.58218675  0.15990484  0.37584480     1.58000
C2422       C  0.63697750  0.19070496  0.26207406     0.92400
O2423       O  0.62370133  0.18703069  0.39466742    -0.81300
H2424       H  0.66877272  0.25188975  0.31807474    -0.06600
C2425       C  0.56330719  0.13397742  0.29837860     0.87300
O2426       O  0.55848524  0.22778978  0.33323529    -0.75800
O2427       O  0.61204576  0.16126526  0.35285229    -0.88600
O2428       O  0.65183116  0.19517835  0.27725797    -0.81400
C2429       C  0.69459277  0.17842793  0.32370646     0.92500
C2430       C  0.65285466  0.19799867  0.39453674     0.92300
Mg2431     Mg  0.58592079  0.19862451  0.28619830     1.58000
O2432       O  0.54385665  0.16890719  0.26807009    -0.81300
O2433       O  0.63085554  0.23341222  0.30136634    -0.75500
O2434       O  0.68657807  0.18689076  0.33873242    -0.81400
O2435       O  0.55301821  0.16151755  0.40049657    -0.83100
O2436       O  0.98254065  0.17427762  0.32397931    -0.81400
C2437       C  0.64809564  0.23123944  0.31355249     0.86800
O2438       O  0.55719225  0.19963716  0.30926077    -0.88500
O2439       O  0.58572601  0.16038970  0.29958196    -0.88700
O2440       O  0.53607709  0.12804270  0.30266267    -0.75700
Mg2441     Mg  0.65495377  0.20545095  0.34899727     1.58000
O2442       O  0.67855202  0.17116735  0.30880932    -0.83100
H2443       H  0.60128798  0.24407330  0.37015203    -0.06800
O2444       O  0.52725132  0.15463231  0.34163435    -0.88400
H2445       H  0.50004534  0.10878871  0.34320790    -0.06600
H2446       H  0.57185165  0.24460000  0.30662957    -0.06800
C2447       C  0.52064024  0.12919354  0.34807184     0.86700
C2448       C  0.60522850  0.22604172  0.36494806     0.87300
C2449       C  0.56266165  0.22470181  0.31582435     0.87400
H2450       H  0.56693451  0.11548422  0.29374543    -0.06800
O2451       O  0.61226224  0.13297382  0.32941104    -0.75800
Mg2452     Mg  0.51393876  0.15616131  0.31319617     1.58000
H2453       H  0.59951511  0.11692989  0.35619357    -0.06800
C2454       C  0.52875700  0.16378627  0.40093412     0.92400
O2455       O  0.49182723  0.19006235  0.35398147    -0.83000
C2456       C  0.97489314  0.18212321  0.33939199     0.92400
O2457       O  0.66857765  0.20367446  0.37924984    -0.83000
Mg2458     Mg  0.63103114  0.16586445  0.30396319     1.58200
O2459       O  0.51695996  0.16657304  0.38582514    -0.81400
O2460       O  0.61282235  0.19301432  0.26177196    -0.83100
C2461       C  0.67617137  0.08360531  0.20793141    -0.11200
C2462       C  0.67255157  0.10665236  0.21671841    -0.05000
C2463       C  0.67111579  0.12955349  0.20638481    -0.11100
C2464       C  0.67314570  0.12958184  0.18645823     0.09800
C2465       C  0.67838545  0.10738289  0.17728925    -0.02900
C2466       C  0.68054279  0.08468537  0.18805089     0.09600
C2467       C  0.68698945  0.06378036  0.17866019    -0.12900
C2468       C  0.69111108  0.06497380  0.15908570    -0.12900
C2469       C  0.68809894  0.08657774  0.14818064     0.09600
C2470       C  0.68114606  0.10767996  0.15728811    -0.02900
C2471       C  0.67009836  0.15116640  0.17549435    -0.13100
C2472       C  0.67209262  0.15099421  0.15582203    -0.13100
C2473       C  0.67761791  0.12950575  0.14644088     0.09800
C2474       C  0.68044102  0.12950653  0.12650842    -0.11100
C2475       C  0.68746885  0.10871364  0.11793467    -0.05000
C2476       C  0.69234407  0.08816067  0.12837927    -0.11200
H2477       H  0.68930594  0.04659602  0.18646168     0.07100
H2478       H  0.69640856  0.04864063  0.15249344     0.07100
H2479       H  0.66611542  0.16838542  0.18208466     0.07200
H2480       H  0.66953663  0.16800653  0.14798509     0.07200
H2481       H  0.66910644  0.10582582  0.23190354     0.03700
H2482       H  0.69059314  0.10948105  0.10271049     0.03700
C2483       C  0.94528165  0.10969650  0.20218520    -0.11200
C2484       C  0.92457723  0.08137255  0.21031334    -0.05000
C2485       C  0.90309521  0.05651065  0.19979070    -0.11100
C2486       C  0.90346744  0.05876010  0.17998527     0.09800
C2487       C  0.92570726  0.08682582  0.17115104    -0.02900
C2488       C  0.94667549  0.11255818  0.18228533     0.09600
C2489       C  0.96804236  0.14017488  0.17323018    -0.12900
C2490       C  0.96959333  0.14228961  0.15361523    -0.12900
C2491       C  0.94904249  0.11722380  0.14238664     0.09600
C2492       C  0.92665286  0.08930880  0.15119520    -0.02900
C2493       C  0.88257914  0.03389715  0.16885735    -0.13100
C2494       C  0.88343573  0.03641252  0.14925035    -0.13100
C2495       C  0.90497985  0.06400997  0.14012040     0.09800
C2496       C  0.90554103  0.06707148  0.12021157    -0.11100
C2497       C  0.92800543  0.09480032  0.11183531    -0.05000
C2498       C  0.94969017  0.11963071  0.12254701    -0.11200
H2499       H  0.98376247  0.16039959  0.18122364     0.07100
H2500       H  0.98666663  0.16400656  0.14729229     0.07100
H2501       H  0.86554803  0.01224309  0.17527636     0.07200
H2502       H  0.86714835  0.01641263  0.14129190     0.07200
H2503       H  0.92459833  0.07871718  0.22551647     0.03700
H2504       H  0.92817359  0.09744884  0.09664674     0.03700
O2505       O  0.58783580  0.46194752  0.30433034    -0.88600
C2506       C  0.56433082  0.37080379  0.30684057     0.87400
Mg2507     Mg  0.63148784  0.49877062  0.31371946     1.58100
O2508       O  0.52938236  0.39256541  0.34303087    -0.88400
O2509       O  0.53901948  0.44321883  0.31192994    -0.75700
C2510       C  0.65532586  0.45542615  0.39712107     0.92400
O2511       O  0.63340678  0.43435798  0.29852308    -0.75500
O2512       O  0.66955902  0.46998824  0.38223007    -0.83000
Mg2513     Mg  0.58912735  0.42868300  0.28541755     1.58000
C2514       C  0.53179408  0.36201003  0.39869690     0.92400
O2515       O  0.54708470  0.41969181  0.26774576    -0.81300
H2516       H  0.50128503  0.40794439  0.35154546    -0.06600
C2517       C  0.60745263  0.39132702  0.35746243     0.87300
O2518       O  0.61090467  0.49900907  0.34288359    -0.75800
O2519       O  0.55969754  0.39261317  0.30536218    -0.88600
O2520       O  0.52040072  0.35063495  0.38257839    -0.81400
C2521       C  0.97734086  0.31668898  0.32690954     0.92500
C2522       C  0.51828268  0.39959646  0.26840729     0.92300
Mg2523     Mg  0.58421290  0.42774878  0.37996797     1.58000
O2524       O  0.62638304  0.43587982  0.39722557    -0.81300
O2525       O  0.53954625  0.42239504  0.36754855    -0.75500
O2526       O  0.98559048  0.33850005  0.31509999    -0.81400
O2527       O  0.61978261  0.46726360  0.26476048    -0.83100
O2528       O  0.68566725  0.01936021  0.35079809    -0.81400
C2529       C  0.52225607  0.40725967  0.35394446     0.86800
O2530       O  0.61287933  0.46422752  0.36027291    -0.88500
O2531       O  0.58485829  0.39452913  0.36062385    -0.88700
O2532       O  0.63398730  0.41413367  0.35334696    -0.75700
Mg2533     Mg  0.51682490  0.39078323  0.31394318     1.58000
O2534       O  0.99328467  0.31947452  0.34148533    -0.83100
H2535       H  0.56882333  0.48855582  0.30663097    -0.06800
O2536       O  0.64334427  0.46485543  0.32271284    -0.88400
H2537       H  0.67152105  0.44930664  0.31470831    -0.06600
H2538       H  0.59737309  0.49126296  0.37039713    -0.06800
C2539       C  0.65057842  0.44992593  0.31206223     0.86700
C2540       C  0.56546791  0.46555835  0.30728393     0.87300
C2541       C  0.60697493  0.48516841  0.35849553     0.87400
H2542       H  0.60435222  0.36840834  0.35767539    -0.06800
O2543       O  0.55978775  0.35651412  0.32232818    -0.75800
Mg2544     Mg  0.65603725  0.46687560  0.35178090     1.58000
H2545       H  0.57320014  0.36422444  0.29478778    -0.06800
C2546       C  0.64300801  0.49439051  0.26677164     0.92400
O2547       O  0.67721080  0.03743937  0.32423507    -0.83000
C2548       C  0.69307784  0.04100938  0.33893546     0.92400
O2549       O  0.00487186  0.38781372  0.28395300    -0.83000
Mg2550     Mg  0.54020836  0.35771333  0.35166835     1.58200
O2551       O  0.65226174  0.50594948  0.28316088    -0.81400
O2552       O  0.55508423  0.38908116  0.40028396    -0.83100
O2553       O  0.85508796  0.42313879  0.30242781    -0.88600
C2554       C  0.79264248  0.45148789  0.31493077     0.87400
Mg2555     Mg  0.84918587  0.37916246  0.31010079     1.58100
O2556       O  0.86156752  0.48877266  0.34140152    -0.88400
O2557       O  0.88868406  0.47249189  0.30487377    -0.75700
C2558       C  0.81333377  0.36814290  0.40006324     0.92400
O2559       O  0.78056902  0.38073519  0.30635259    -0.75500
O2560       O  0.80766634  0.35140769  0.38551322    -0.83000
Mg2561     Mg  0.81627216  0.42223805  0.28903926     1.58000
C2562       C  0.85059018  0.49058210  0.40076390     0.92400
O2563       O  0.84638945  0.45982097  0.26829151    -0.81300
H2564       H  0.90779199  0.51408574  0.34253741    -0.06600
C2565       C  0.78731740  0.41341732  0.36596187     0.87300
O2566       O  0.88105306  0.40040093  0.33536486    -0.75800
O2567       O  0.81768097  0.45457506  0.30964740    -0.88600
O2568       O  0.84408440  0.50109125  0.38617575    -0.81400
C2569       C  0.83362241  0.03943888  0.33157594     0.92500
C2570       C  0.85643392  0.48840041  0.26633183     0.92300
Mg2571     Mg  0.85362071  0.43558481  0.37776364     1.58000
O2572       O  0.82471641  0.39714914  0.39908263    -0.81300
O2573       O  0.88857486  0.47711055  0.36011861    -0.75500
O2574       O  0.84228250  0.02976347  0.31741059    -0.81400
O2575       O  0.81677899  0.39046214  0.26706498    -0.83100
O2576       O  0.82661518  0.32851517  0.34905952    -0.81400
C2577       C  0.88671102  0.49447934  0.34792713     0.86800
O2578       O  0.85143041  0.40335083  0.35707472    -0.88500
O2579       O  0.81428331  0.43525268  0.36510166    -0.88700
O2580       O  0.78058069  0.38601762  0.36208345    -0.75700
Mg2581     Mg  0.86152778  0.49726884  0.31170270     1.58000
O2582       O  0.82620942  0.52569310  0.34754976    -0.83100
H2583       H  0.90052940  0.44047712  0.29795557    -0.06800
O2584       O  0.80771673  0.37011863  0.32558501    -0.88400
H2585       H  0.76155064  0.34408798  0.32419814    -0.06600
H2586       H  0.89542806  0.41535455  0.36196022    -0.06800
C2587       C  0.78254031  0.36382236  0.31882410     0.86700
C2588       C  0.88203538  0.44498636  0.30142321     0.87300
C2589       C  0.87657042  0.40641609  0.35207385     0.87400
H2590       H  0.76885462  0.41788500  0.36961376    -0.06800
O2591       O  0.78870372  0.45806636  0.33164161    -0.75800
Mg2592     Mg  0.80731356  0.36097848  0.35484028     1.58000
H2593       H  0.77347052  0.44228498  0.30526801    -0.06800
C2594       C  0.81981928  0.36693450  0.26719259     0.92400
O2595       O  0.84347406  0.33333799  0.31924879    -0.83000
C2596       C  0.83598499  0.31927574  0.33504782     0.92400
O2597       O  0.86127042  0.00673374  0.28001469    -0.83000
Mg2598     Mg  0.82013875  0.47942886  0.35725994     1.58200
O2599       O  0.82333525  0.35613711  0.28261603    -0.81400
O2600       O  0.85491062  0.46781732  0.39969206    -0.83100
C2601       C  0.93609411  0.35741577  0.20794664    -0.11200
C2602       C  0.91050935  0.35581137  0.21726600    -0.05000
C2603       C  0.88244478  0.34560338  0.20819386    -0.11100
C2604       C  0.88042645  0.33866200  0.18878853     0.09800
C2605       C  0.90583789  0.33877525  0.17933809    -0.02900
C2606       C  0.93355818  0.34732664  0.18909555     0.09600
C2607       C  0.95783224  0.34583077  0.17972791    -0.12900
C2608       C  0.95482878  0.33593775  0.16098340    -0.12900
C2609       C  0.92796971  0.32842264  0.15086627     0.09600
C2610       C  0.90351535  0.33047069  0.16007752    -0.02900
C2611       C  0.85387364  0.33178659  0.17859880    -0.13100
C2612       C  0.85265375  0.32618162  0.15935408    -0.13100
C2613       C  0.87690354  0.32480280  0.14995268     0.09800
C2614       C  0.87561721  0.31839064  0.13057309    -0.11100
C2615       C  0.89846816  0.31416437  0.12204664    -0.05000
C2616       C  0.92446157  0.31885445  0.13177186    -0.11200
H2617       H  0.97917499  0.35203489  0.18692180     0.07100
H2618       H  0.97384333  0.33472019  0.15433690     0.07100
H2619       H  0.83411914  0.33149784  0.18528996     0.07200
H2620       H  0.83223700  0.32250013  0.15203454     0.07200
H2621       H  0.91244642  0.36250618  0.23199710     0.03700
H2622       H  0.89632980  0.30781251  0.10723899     0.03700
O2623       O  0.76477842  0.00963859  0.96385511    -0.88600
C2624       C  0.68082987  0.44927768  0.99166782     0.87400
Mg2625     Mg  0.80663165  0.00779756  0.96814034     1.58100
O2626       O  0.71929302  0.02681906  0.00808770    -0.88400
O2627       O  0.74648028  0.04107890  0.96583675    -0.75700
C2628       C  0.81869782  0.00720714  0.06114338     0.92400
O2629       O  0.73831145  0.43680448  0.97736110    -0.75500
O2630       O  0.82595887  0.99769673  0.04630510    -0.83000
Mg2631     Mg  0.72280523  0.46344268  0.95843576     1.58000
C2632       C  0.72708504  0.03787714  0.06724072     0.92400
O2633       O  0.70347205  0.48366143  0.93716343    -0.81300
H2634       H  0.73702993  0.07210859  0.00424162    -0.06600
C2635       C  0.73356660  0.46431970  0.03786708     0.87300
O2636       O  0.82460590  0.04769433  0.98955714    -0.75800
O2637       O  0.69966078  0.47163672  0.98213963    -0.88600
O2638       O  0.70668054  0.02583346  0.05448176    -0.81400
C2639       C  0.63788994  0.49531108  0.01083642     0.92500
C2640       C  0.68194607  0.49027012  0.93735881     0.92300
Mg2641     Mg  0.77803394  0.03423836  0.03982279     1.58000
O2642       O  0.79779933  0.01454832  0.06085053    -0.81300
O2643       O  0.76237747  0.06116389  0.02128497    -0.75500
O2644       O  0.64895812  0.49437739  0.99461732    -0.81400
O2645       O  0.74696191  0.45459315  0.93328214    -0.83100
O2646       O  0.85219961  0.00610303  0.00406227    -0.81400
C2647       C  0.73910344  0.05400733  0.01101224     0.86800
O2648       O  0.80137550  0.02695620  0.01630698    -0.88500
O2649       O  0.73642898  0.48976600  0.03447923    -0.88700
O2650       O  0.75398616  0.45769381  0.03264115    -0.75700
Mg2651     Mg  0.69837463  0.01523600  0.98065307     1.58000
O2652       O  0.65190624  0.49685224  0.02599701    -0.83100
H2653       H  0.78774714  0.05244132  0.95329220    -0.06800
O2654       O  0.78124629  0.47159784  0.99049282    -0.88400
H2655       H  0.76376076  0.42642126  0.99469744    -0.06600
H2656       H  0.83244892  0.07196464  0.01387799    -0.06800
C2657       C  0.76157866  0.44430660  0.98771489     0.86700
C2658       C  0.76721588  0.03492468  0.96056131     0.87300
C2659       C  0.82007067  0.04973703  0.00703903     0.87400
H2660       H  0.71289346  0.44705060  0.04514508    -0.06800
O2661       O  0.67634357  0.45202141  0.00908077    -0.75800
Mg2662     Mg  0.80212198  0.48333484  0.01792896     1.58000
H2663       H  0.66814937  0.42684137  0.98510723    -0.06800
C2664       C  0.77409057  0.45834974  0.93145153     0.92400
O2665       O  0.84975731  0.00386624  0.97264943    -0.83000
C2666       C  0.86348867  0.00542454  0.98792378     0.92400
O2667       O  0.67523490  0.49987103  0.95233641    -0.83000
Mg2668     Mg  0.69493588  0.49232867  0.03031393     1.58200
O2669       O  0.79433184  0.47129163  0.94423055    -0.81400
O2670       O  0.75408175  0.04166548  0.06500182    -0.83100
O2671       O  0.75086722  0.22577189  0.97082270    -0.88600
C2672       C  0.77584075  0.31518168  0.98210135     0.87400
Mg2673     Mg  0.70500057  0.18680481  0.97376569     1.58100
O2674       O  0.80740069  0.28307720  0.01277026    -0.88400
O2675       O  0.80024228  0.24339593  0.97598413    -0.75700
C2676       C  0.68008471  0.19855778  0.06234191     0.92400
O2677       O  0.70827971  0.25652716  0.97017338    -0.75500
O2678       O  0.66315657  0.18308143  0.04860395    -0.83000
Mg2679     Mg  0.75397872  0.26410473  0.95635922     1.58000
C2680       C  0.79537434  0.29088153  0.06974148     0.92400
O2681       O  0.79723381  0.27003922  0.94139598    -0.81300
H2682       H  0.83343636  0.26393037  0.01733513    -0.06600
C2683       C  0.72370325  0.27493378  0.03012309     0.87300
O2684       O  0.72005677  0.17246313  0.00062610    -0.75800
O2685       O  0.77983196  0.29328901  0.97906325    -0.88600
O2686       O  0.80616326  0.30782363  0.05518243    -0.81400
C2687       C  0.85718439  0.36345279  0.00746919     0.92500
C2688       C  0.82144700  0.29609900  0.93902504     0.92300
Mg2689     Mg  0.74593459  0.23432262  0.04443811     1.58000
O2690       O  0.70194192  0.22582679  0.05935527    -0.81300
O2691       O  0.79228992  0.24338340  0.03161260    -0.75500
O2692       O  0.85102864  0.34665639  0.99275054    -0.81400
O2693       O  0.72756149  0.23602883  0.93160606    -0.83100
O2694       O  0.65038924  0.14979653  0.00837360    -0.81400
C2695       C  0.81219748  0.26390828  0.02055584     0.86800
O2696       O  0.72041445  0.20460279  0.02138983    -0.88500
O2697       O  0.74681128  0.27193343  0.02951000    -0.88700
O2698       O  0.69670734  0.25244658  0.02657329    -0.75700
Mg2699     Mg  0.82273205  0.29521433  0.98411446     1.58000
O2700       O  0.83976211  0.35480525  0.02209113    -0.83100
H2701       H  0.76991044  0.19911652  0.96838521    -0.06800
O2702       O  0.69124197  0.21601034  0.98875223    -0.88400
H2703       H  0.66803804  0.23848858  0.98540751    -0.06600
H2704       H  0.73124115  0.17254318  0.02809910    -0.06800
C2705       C  0.68814777  0.23676399  0.98159585     0.86700
C2706       C  0.77328325  0.22168250  0.97156406     0.87300
C2707       C  0.72420364  0.18282489  0.01732839     0.87400
H2708       H  0.72643693  0.29705310  0.03390177    -0.06800
O2709       O  0.77779477  0.32547815  0.99861609    -0.75800
Mg2710     Mg  0.67636527  0.20117315  0.01758100     1.58000
H2711       H  0.76981289  0.32515427  0.97061350    -0.06800
C2712       C  0.70112274  0.21193034  0.93087895     0.92400
O2713       O  0.65690225  0.14599487  0.97743564    -0.83000
C2714       C  0.64187158  0.13523807  0.99275498     0.92400
O2715       O  0.83705480  0.31085461  0.95332521    -0.83000
Mg2716     Mg  0.79182406  0.31254654  0.02603285     1.58200
O2717       O  0.68873429  0.19469601  0.94524279    -0.81400
O2718       O  0.77188928  0.26401210  0.06894036    -0.83100
O2719       O  0.51985622  0.27635215  0.03265857    -0.88600
C2720       C  0.96166020  0.18593915  0.01793674     0.87400
Mg2721     Mg  0.51017402  0.31248800  0.02603113     1.58100
O2722       O  0.53233936  0.22258716  0.99195071    -0.88400
O2723       O  0.55513731  0.26275143  0.02954608    -0.75700
C2724       C  0.48227926  0.29513938  0.93509331     0.92400
O2725       O  0.94468625  0.23990285  0.02942484    -0.75500
O2726       O  0.47390407  0.30321974  0.95003681    -0.83000
Mg2727     Mg  0.98259090  0.23652592  0.04552876     1.58000
C2728       C  0.52828448  0.21482976  0.93291394     0.92400
O2729       O  0.01792567  0.23311576  0.06378648    -0.81300
H2730       H  0.57867283  0.24714991  0.99097587    -0.06600
C2731       C  0.95566257  0.21945037  0.96792006     0.87300
O2732       O  0.54309806  0.32683227  0.00033506    -0.75800
O2733       O  0.98593618  0.20847906  0.02336271    -0.88600
O2734       O  0.52085241  0.19737245  0.94745528    -0.81400
C2735       C  0.00499444  0.14230730  0.99981986     0.92500
C2736       C  0.01872238  0.20849534  0.06598879     0.92300
Mg2737     Mg  0.52180298  0.26758093  0.95630467     1.58000
O2738       O  0.49193836  0.27607550  0.93566350    -0.81300
O2739       O  0.55777471  0.26294844  0.97362944    -0.75500
O2740       O  0.01094439  0.15915631  0.01444828    -0.81400
O2741       O  0.97858506  0.26495533  0.06894815    -0.83100
O2742       O  0.48936884  0.34109294  0.98721445    -0.81400
C2743       C  0.55706883  0.24395651  0.98565707     0.86800
O2744       O  0.51643287  0.29448719  0.97808564    -0.88500
O2745       O  0.98319724  0.22646961  0.96867319    -0.88700
O2746       O  0.94686056  0.23848002  0.97225100    -0.75700
Mg2747     Mg  0.53049524  0.21092446  0.02127919     1.58000
O2748       O  0.00099599  0.15085943  0.98369925    -0.83100
H2749       H  0.56490895  0.30586064  0.03703678    -0.06800
O2750       O  0.96980834  0.27891665  0.01002092    -0.88400
H2751       H  0.92348071  0.25550301  0.01213072    -0.06600
H2752       H  0.55978952  0.32921595  0.97373868    -0.06800
C2753       C  0.94517724  0.25836486  0.01703317     0.86700
C2754       C  0.54721279  0.28269175  0.03331865     0.87300
C2755       C  0.54041809  0.31739567  0.98347088     0.87400
H2756       H  0.93848747  0.19624242  0.96390343    -0.06800
O2757       O  0.95904369  0.17617507  0.00113667    -0.75800
Mg2758     Mg  0.97059652  0.28980709  0.98056816     1.58000
H2759       H  0.94209758  0.17462197  0.02758515    -0.06800
C2760       C  0.97737184  0.28961935  0.06915221     0.92400
O2761       O  0.50049306  0.35074724  0.01776160    -0.83000
C2762       C  0.49570666  0.35843672  0.00158342     0.92400
O2763       O  0.02437406  0.19611814  0.05201787    -0.83000
Mg2764     Mg  0.99238121  0.19001186  0.97553800     1.58200
O2765       O  0.98270946  0.30584005  0.05423540    -0.81400
O2766       O  0.52740725  0.23965198  0.93326126    -0.83100
O2767       O  0.69005085  0.06948001  0.63406959    -0.88600
C2768       C  0.62648362  0.09610508  0.64704661     0.87400
Mg2769     Mg  0.68181497  0.02384329  0.64058742     1.58100
O2770       O  0.69374000  0.12881176  0.67522156    -0.88400
O2771       O  0.72354927  0.11843828  0.63784361    -0.75700
C2772       C  0.63681319  0.00459658  0.73102448     0.92400
O2773       O  0.61611317  0.02640020  0.63469319    -0.75500
O2774       O  0.63604625  0.48915059  0.71665330    -0.83000
Mg2775     Mg  0.65332882  0.07032097  0.61931745     1.58000
C2776       C  0.67663038  0.12879909  0.73376350     0.92400
O2777       O  0.68479170  0.11192687  0.60069443    -0.81300
H2778       H  0.73971023  0.15439823  0.67829453    -0.06600
C2779       C  0.61717728  0.05347338  0.69708939     0.87300
O2780       O  0.71150091  0.04236220  0.66731195    -0.75800
O2781       O  0.65183171  0.10006787  0.64152411    -0.88600
O2782       O  0.67880304  0.14118696  0.71782855    -0.81400
C2783       C  0.66916750  0.18344988  0.66973850     0.92500
C2784       C  0.69459923  0.14074488  0.60055173     0.92300
Mg2785     Mg  0.68105546  0.07403070  0.71153645     1.58000
O2786       O  0.64884173  0.03365500  0.73003910    -0.81300
O2787       O  0.71852178  0.11729357  0.69580702    -0.75500
O2788       O  0.67677249  0.17478379  0.65458968    -0.81400
O2789       O  0.65860702  0.04129824  0.59586449    -0.83100
O2790       O  0.65793036  0.46961017  0.67746751    -0.81400
C2791       C  0.71813686  0.13455135  0.68289664     0.86800
O2792       O  0.68160108  0.04354781  0.68977263    -0.88500
O2793       O  0.64439792  0.07475753  0.69673955    -0.88700
O2794       O  0.60998364  0.02613515  0.69272829    -0.75700
Mg2795     Mg  0.69589481  0.14225926  0.64631586     1.58000
O2796       O  0.66108053  0.16742830  0.68467267    -0.83100
H2797       H  0.73555624  0.08696338  0.62970417    -0.06800
O2798       O  0.64030640  0.01490892  0.65571773    -0.88400
H2799       H  0.59453617  0.98898746  0.65194546    -0.06600
H2800       H  0.72575903  0.05560110  0.69417983    -0.06800
C2801       C  0.61616807  0.00905961  0.64766793     0.86700
C2802       C  0.71703924  0.09123079  0.63358310     0.87300
C2803       C  0.70689660  0.04730410  0.68432612     0.87400
H2804       H  0.59900969  0.05836570  0.70076481    -0.06800
O2805       O  0.62202823  0.10120574  0.66406653    -0.75800
Mg2806     Mg  0.63713746  0.00170460  0.68503733     1.58000
H2807       H  0.60752172  0.08763160  0.63725857    -0.06800
C2808       C  0.65914607  0.01624565  0.59642583     0.92400
O2809       O  0.67257479  0.97564184  0.64744525    -0.83000
C2810       C  0.66501528  0.46009976  0.66245747     0.92400
O2811       O  0.69733909  0.15583151  0.61561126    -0.83000
Mg2812     Mg  0.65246229  0.11989660  0.69054695     1.58200
O2813       O  0.65712676  0.00328409  0.61223443    -0.81400
O2814       O  0.67689771  0.10365944  0.73487105    -0.83100
C2815       C  0.62193552  0.17934820  0.86830157    -0.11200
C2816       C  0.59775770  0.17964645  0.87806634    -0.05000
C2817       C  0.57307261  0.17897700  0.86881337    -0.11100
C2818       C  0.57161821  0.17644171  0.84887722     0.09800
C2819       C  0.59551228  0.17463878  0.83873840    -0.02900
C2820       C  0.62102341  0.17652222  0.84850927     0.09600
C2821       C  0.64472041  0.17534413  0.83832717    -0.12900
C2822       C  0.64303946  0.17143056  0.81881996    -0.12900
C2823       C  0.61783482  0.16903186  0.80881506     0.09600
C2824       C  0.59415032  0.17134039  0.81881056    -0.02900
C2825       C  0.54710624  0.17541641  0.83884624    -0.13100
C2826       C  0.54574079  0.17214588  0.81922277    -0.13100
C2827       C  0.56884710  0.16977964  0.80898365     0.09800
C2828       C  0.56734234  0.16569329  0.78916682    -0.11100
C2829       C  0.59078639  0.16333255  0.77957083    -0.05000
C2830       C  0.61560150  0.16427729  0.78906258    -0.11200
H2831       H  0.66446146  0.17685602  0.84546457     0.07100
H2832       H  0.66168392  0.17028110  0.81160543     0.07100
H2833       H  0.52867037  0.17681581  0.84616602     0.07200
H2834       H  0.52632076  0.17133684  0.81210305     0.07200
H2835       H  0.59927300  0.18256367  0.89329112     0.03700
H2836       H  0.58885722  0.15914324  0.76448353     0.03700
C2837       C  0.59217543  0.43280038  0.87901046    -0.11200
C2838       C  0.56728433  0.40790937  0.88835376    -0.05000
C2839       C  0.54132191  0.38557920  0.87870618    -0.11100
C2840       C  0.53997497  0.38812598  0.85896846     0.09800
C2841       C  0.56497612  0.41328704  0.84920504    -0.02900
C2842       C  0.59119577  0.43577042  0.85919939     0.09600
C2843       C  0.61556468  0.46041681  0.84912267    -0.12900
C2844       C  0.61440942  0.46279608  0.82953309    -0.12900
C2845       C  0.58861011  0.44091714  0.81942612     0.09600
C2846       C  0.56371246  0.41586378  0.82937096    -0.02900
C2847       C  0.51414968  0.36632282  0.84878854    -0.13100
C2848       C  0.51312317  0.36861468  0.82932891    -0.13100
C2849       C  0.53757724  0.39314834  0.81944320     0.09800
C2850       C  0.53647747  0.39587482  0.79980972    -0.11100
C2851       C  0.56034845  0.42086757  0.79035505    -0.05000
C2852       C  0.58647178  0.44317661  0.79963866    -0.11200
H2853       H  0.63574703  0.47806269  0.85634453     0.07100
H2854       H  0.63367447  0.48207007  0.82233960     0.07100
H2855       H  0.49439829  0.34729705  0.85578154     0.07200
H2856       H  0.49279161  0.35121666  0.82207762     0.07200
H2857       H  0.56849974  0.40543214  0.90346445     0.03700
H2858       H  0.55893996  0.42250433  0.77515293     0.03700
O2859       O  0.89956419  0.06945010  0.70272907    -0.88600
C2860       C  0.98339900  0.09255406  0.67801241     0.87400
Mg2861     Mg  0.85784708  0.02564870  0.69830522     1.58100
O2862       O  0.94754120  0.13177311  0.65951347    -0.88400
O2863       O  0.91821635  0.11930474  0.70116172    -0.75700
C2864       C  0.85236600  0.01230572  0.60513387     0.92400
O2865       O  0.92591393  0.02451408  0.69199090    -0.75500
O2866       O  0.84451748  0.99399042  0.61924769    -0.83000
Mg2867     Mg  0.93996489  0.06732443  0.71043730     1.58000
C2868       C  0.94072084  0.13579910  0.60129233     0.92400
O2869       O  0.95664334  0.10791870  0.73127290    -0.81300
H2870       H  0.92953096  0.15900181  0.66356460    -0.06600
C2871       C  0.93307616  0.05508272  0.63038199     0.87300
O2872       O  0.84041514  0.04658181  0.67649536    -0.75800
O2873       O  0.96503166  0.09765603  0.68691841    -0.88600
O2874       O  0.96147764  0.14265343  0.61365959    -0.81400
C2875       C  0.52958160  0.17960458  0.65774986     0.92500
C2876       C  0.97952165  0.13552640  0.73125306     0.92300
Mg2877     Mg  0.88906300  0.07997116  0.62788987     1.58000
O2878       O  0.87016221  0.04113275  0.60705878    -0.81300
O2879       O  0.90394807  0.12209734  0.64678328    -0.75500
O2880       O  0.51568418  0.17096975  0.67376272    -0.81400
O2881       O  0.91407476  0.03503315  0.73533399    -0.83100
O2882       O  0.81677554  0.47326242  0.66244218    -0.81400
C2883       C  0.92753421  0.13879270  0.65672121     0.86800
O2884       O  0.86474605  0.04801871  0.65042179    -0.88500
O2885       O  0.92981049  0.07729368  0.63419821    -0.88700
O2886       O  0.91308541  0.02786843  0.63540206    -0.75700
Mg2887     Mg  0.96691455  0.14144599  0.68705320     1.58000
O2888       O  0.51724241  0.16549811  0.64254279    -0.83100
H2889       H  0.87622127  0.08923170  0.71286104    -0.06800
O2890       O  0.88372039  0.01518813  0.67739375    -0.88400
H2891       H  0.90200903  0.98795810  0.67459021    -0.06600
H2892       H  0.83283426  0.06085305  0.65146137    -0.06800
C2893       C  0.90344471  0.00812990  0.68113290     0.86700
C2894       C  0.89705866  0.09230453  0.70597170     0.87300
C2895       C  0.84527058  0.05185407  0.65896270     0.87400
H2896       H  0.95394629  0.05905257  0.62308508    -0.06800
O2897       O  0.98817255  0.09803730  0.66044978    -0.75800
Mg2898     Mg  0.86484172  0.00471366  0.64940093     1.58000
H2899       H  0.99512849  0.08253349  0.68524190    -0.06800
C2900       C  0.88721253  0.01103141  0.73639436     0.92400
O2901       O  0.81452121  0.47890105  0.69363657    -0.83000
C2902       C  0.80296877  0.46423653  0.67844681     0.92400
O2903       O  0.98873638  0.15127889  0.71609671    -0.83000
Mg2904     Mg  0.97197232  0.12009138  0.63834455     1.58200
O2905       O  0.86802948  0.00315442  0.72298652    -0.81400
O2906       O  0.91363273  0.11254861  0.60329832    -0.83100
O2907       O  0.90833100  0.33653328  0.69911615    -0.88600
C2908       C  0.93385373  0.27181407  0.68619283     0.87400
Mg2909     Mg  0.86586800  0.33423777  0.69124477     1.58100
O2910       O  0.97471648  0.34140117  0.66057378    -0.88400
O2911       O  0.95849934  0.36815722  0.69703531    -0.75700
C2912       C  0.85907398  0.30298227  0.60084427     0.92400
O2913       O  0.86266827  0.26291921  0.69384581    -0.75500
O2914       O  0.84159322  0.29861607  0.61505563    -0.83000
Mg2915     Mg  0.90429261  0.29553254  0.71172448     1.58000
C2916       C  0.98019637  0.33274976  0.60095136     0.92400
O2917       O  0.94150963  0.32286195  0.73271008    -0.81300
H2918       H  0.00333434  0.38706361  0.65960064    -0.06600
C2919       C  0.89857599  0.27104951  0.63552621     0.87300
O2920       O  0.89019962  0.36657428  0.66612373    -0.75800
O2921       O  0.93720918  0.29674015  0.69145495    -0.88600
O2922       O  0.98934177  0.32574108  0.61591199    -0.81400
C2923       C  0.52389752  0.31272939  0.67042726     0.92500
C2924       C  0.97025694  0.33397388  0.73519498     0.92300
Mg2925     Mg  0.92560863  0.33814552  0.62364398     1.58000
O2926       O  0.88756997  0.31162888  0.60242199    -0.81300
O2927       O  0.96756009  0.37095213  0.64135842    -0.75500
O2928       O  0.51227504  0.31868526  0.68480220    -0.81400
O2929       O  0.87227512  0.29604965  0.73361273    -0.83100
O2930       O  0.81935515  0.31874716  0.65123233    -0.81400
C2931       C  0.98303034  0.36716286  0.65399449     0.86800
O2932       O  0.89343832  0.33750967  0.64441828    -0.88500
O2933       O  0.92182128  0.29712596  0.63623307    -0.88700
O2934       O  0.87147729  0.26635796  0.63907417    -0.75700
Mg2935     Mg  0.98138490  0.33934876  0.69029559     1.58000
O2936       O  0.51194539  0.30799754  0.65408244    -0.83100
H2937       H  0.92768350  0.38173148  0.70405310    -0.06800
O2938       O  0.85503062  0.29311462  0.67538987    -0.88400
H2939       H  0.82650553  0.24741573  0.67596175    -0.06600
H2940       H  0.90843447  0.38218470  0.64000152    -0.06800
C2941       C  0.84686229  0.26716061  0.68165125     0.86700
C2942       C  0.93116317  0.36274017  0.70043698     0.87300
C2943       C  0.89762839  0.36277892  0.64959597     0.87400
H2944       H  0.90143892  0.25158882  0.63219135    -0.06800
O2945       O  0.94168261  0.26849672  0.66965272    -0.75800
Mg2946     Mg  0.84880486  0.29564790  0.64591770     1.58000
H2947       H  0.92351616  0.25230694  0.69572651    -0.06800
C2948       C  0.85073065  0.30238995  0.73414563     0.92400
O2949       O  0.82109319  0.33153832  0.68161070    -0.83000
C2950       C  0.80908570  0.32699015  0.66529428     0.92400
O2951       O  0.49021046  0.34019984  0.72099852    -0.83000
Mg2952     Mg  0.96530249  0.30110246  0.64442706     1.58200
O2953       O  0.84152362  0.30944828  0.71926944    -0.81400
O2954       O  0.95774614  0.33781492  0.60146601    -0.83100
C2955       C  0.81408578  0.40653058  0.87297700    -0.11200
C2956       C  0.81701111  0.38459651  0.88333220    -0.05000
C2957       C  0.82469651  0.36422967  0.87475685    -0.11100
C2958       C  0.82795582  0.36447887  0.85493283     0.09800
C2959       C  0.82771099  0.38827772  0.84434091    -0.02900
C2960       C  0.82197963  0.41023972  0.85347084     0.09600
C2961       C  0.82439452  0.43495900  0.84285172    -0.12900
C2962       C  0.83339878  0.43861398  0.82376541    -0.12900
C2963       C  0.83754129  0.41619891  0.81431655     0.09600
C2964       C  0.83320830  0.39005005  0.82457269    -0.02900
C2965       C  0.83118972  0.34161637  0.84543232    -0.13100
C2966       C  0.83287483  0.34139171  0.82580026    -0.13100
C2967       C  0.83468496  0.36576698  0.81514418     0.09800
C2968       C  0.83824507  0.36686048  0.79530433    -0.11100
C2969       C  0.84468572  0.39364762  0.78565532    -0.05000
C2970       C  0.84605129  0.41890475  0.79493488    -0.11200
H2971       H  0.82044352  0.45221033  0.84942289     0.07100
H2972       H  0.83618298  0.45862527  0.81630646     0.07100
H2973       H  0.83141612  0.32314430  0.85307811     0.07200
H2974       H  0.83386400  0.32250220  0.81907671     0.07200
H2975       H  0.81254007  0.38289177  0.89844021     0.03700
H2976       H  0.84964947  0.39522536  0.77061059     0.03700
C2977       C  0.49860033  0.22130147  0.45934996    -0.11200
C2978       C  0.50239956  0.24652638  0.44883047    -0.05000
C2979       C  0.50292986  0.27199218  0.45736371    -0.11100
C2980       C  0.50034813  0.27272278  0.47730791     0.09800
C2981       C  0.49490024  0.24664148  0.48811631    -0.02900
C2982       C  0.49294648  0.22040137  0.47903588     0.09600
C2983       C  0.48587784  0.19424822  0.48989155    -0.12900
C2984       C  0.97969119  0.19294542  0.50949056    -0.12900
C2985       C  0.98325953  0.21927899  0.51883762     0.09600
C2986       C  0.99071663  0.24608901  0.50815885    -0.02900
C2987       C  0.50342233  0.29883233  0.48674934    -0.13100
C2988       C  0.00169822  0.29912616  0.50645824    -0.13100
C2989       C  0.99543924  0.27335839  0.51743833     0.09800
C2990       C  0.99370148  0.27381576  0.53745963    -0.11100
C2991       C  0.98583269  0.24698701  0.54754250    -0.05000
C2992       C  0.98004591  0.21981961  0.53865400    -0.11200
H2993       H  0.48378578  0.17377159  0.48332316     0.07100
H2994       H  0.97410924  0.17225301  0.51728897     0.07100
H2995       H  0.50736770  0.31901918  0.47898648     0.07200
H2996       H  0.00550662  0.32023773  0.51304998     0.07200
H2997       H  0.50618368  0.24685997  0.43369693     0.03700
H2998       H  0.98335426  0.24698492  0.56279230     0.03700
C2999       C  0.77247281  0.28486567  0.46024781    -0.11200
C3000       C  0.74846893  0.26132034  0.45021936    -0.05000
C3001       C  0.72671732  0.23376066  0.45880825    -0.11100
C3002       C  0.72879270  0.22930845  0.47825159     0.09800
C3003       C  0.75390787  0.25283075  0.48851713    -0.02900
C3004       C  0.77600245  0.28070740  0.47944069     0.09600
C3005       C  0.80108486  0.30341916  0.48965773    -0.12900
C3006       C  0.80463573  0.29878620  0.50856067    -0.12900
C3007       C  0.78260253  0.27179479  0.51791695     0.09600
C3008       C  0.75680973  0.24867234  0.50791236    -0.02900
C3009       C  0.70681072  0.20225586  0.48764649    -0.13100
C3010       C  0.70934709  0.19839812  0.50692480    -0.13100
C3011       C  0.73413954  0.22132564  0.51726060     0.09800
C3012       C  0.73717484  0.21805097  0.53675176    -0.11100
C3013       C  0.76251984  0.24103748  0.54628279    -0.05000
C3014       C  0.78539764  0.26725181  0.53714263    -0.11200
H3015       H  0.81835771  0.32472253  0.48300183     0.07100
H3016       H  0.82443890  0.31674350  0.51592551     0.07100
H3017       H  0.68749374  0.18397884  0.48012945     0.07200
H3018       H  0.69184090  0.17734143  0.51370189     0.07200
H3019       H  0.74604307  0.26498646  0.43539689     0.03700
H3020       H  0.76511836  0.23790664  0.56117027     0.03700
C3021       C  0.73456812  0.48905041  0.46118125    -0.11200
C3022       C  0.76249374  0.49466018  0.45296335    -0.05000
C3023       C  0.78759069  0.49909877  0.46364287    -0.11100
C3024       C  0.78438516  0.49679274  0.48356526     0.09800
C3025       C  0.75622347  0.49150043  0.49232809    -0.02900
C3026       C  0.73130920  0.48795857  0.48108880     0.09600
C3027       C  0.70406678  0.48357243  0.49003476    -0.12900
C3028       C  0.70147215  0.98282306  0.50889965    -0.12900
C3029       C  0.72550182  0.98592020  0.52048035     0.09600
C3030       C  0.75292784  0.98914994  0.51176793    -0.02900
C3031       C  0.80818731  0.49904109  0.49489920    -0.13100
C3032       C  0.80416654  0.99472146  0.51401868    -0.13100
C3033       C  0.77694626  0.99056195  0.52298518     0.09800
C3034       C  0.77306315  0.98784200  0.54286000    -0.11100
C3035       C  0.74670259  0.98631290  0.55117577    -0.05000
C3036       C  0.72287294  0.98552969  0.54051791    -0.11200
H3037       H  0.68475795  0.48096438  0.48185427     0.07100
H3038       H  0.67998707  0.97951360  0.51496789     0.07100
H3039       H  0.82991523  0.50317989  0.48872145     0.07200
H3040       H  0.82267423  0.99509721  0.52192695     0.07200
H3041       H  0.76447195  0.49475172  0.43768192     0.03700
H3042       H  0.74521064  0.98671247  0.56644320     0.03700
O3043       O  0.51111026  0.46031075  0.01603392    -0.88600
C3044       C  0.55649064  0.02036142  0.97256853     0.87400
Mg3045     Mg  0.96209823  0.42666126  0.01441749     1.58100
O3046       O  0.53981670  0.05249285  0.01236637    -0.88400
O3047       O  0.54318500  0.99772595  0.03371441    -0.75700
C3048       C  0.89156593  0.50263540  0.98813588     0.92400
O3049       O  0.49804692  0.44835935  0.97157913    -0.75500
O3050       O  0.88977081  0.47664696  0.98562913    -0.83000
Mg3051     Mg  0.53886526  0.46218891  0.99161454     1.58000
C3052       C  0.50288896  0.11186736  0.00134763     0.92400
O3053       O  0.58378115  0.47282446  0.00675996    -0.81300
H3054       H  0.54368025  0.06303902  0.03979558    -0.06600
C3055       C  0.97821425  0.02903492  0.96837197     0.87300
O3056       O  0.94871864  0.45755450  0.03130633    -0.75800
O3057       O  0.55361216  0.01005457  0.98870598    -0.88600
O3058       O  0.52691585  0.10980496  0.99777231    -0.81400
C3059       C  0.61215712  0.10645771  0.99250780     0.92500
C3060       C  0.60856546  0.99626728  0.01126232     0.92300
Mg3061     Mg  0.96101684  0.03769074  0.00850513     1.58000
O3062       O  0.91715226  0.02762087  0.99261542    -0.81300
O3063       O  0.00160509  0.05072493  0.02865162    -0.75500
O3064       O  0.61065590  0.08182250  0.99837641    -0.81400
O3065       O  0.52360172  0.41188983  0.99574460    -0.83100
O3066       O  0.88848337  0.41714547  0.00200105    -0.81400
C3067       C  0.52930162  0.05604808  0.02742382     0.86800
O3068       O  0.94570031  0.48892581  0.01136680    -0.88500
O3069       O  0.98851575  0.03946593  0.98411523    -0.88700
O3070       O  0.95660638  0.50106216  0.96642568    -0.75700
Mg3071     Mg  0.57410835  0.03777290  0.01368087     1.58000
O3072       O  0.58835036  0.10785514  0.98803885    -0.83100
H3073       H  0.51175564  0.45563422  0.04397720    -0.06800
O3074       O  0.95974610  0.44656681  0.98787383    -0.88400
H3075       H  0.95587047  0.43579433  0.96048166    -0.06600
H3076       H  0.93566306  0.48846129  0.03879861    -0.06800
C3077       C  0.97028964  0.44299112  0.97283892     0.86700
C3078       C  0.52176259  0.47037581  0.03175470     0.87300
C3079       C  0.94271149  0.47864482  0.02751637     0.87400
H3080       H  0.98846816  0.04356948  0.95609177    -0.06800
O3081       O  0.55060366  0.04157178  0.96886466    -0.75800
Mg3082     Mg  0.92549195  0.46106958  0.98640960     1.58000
H3083       H  0.56337930  0.01050161  0.96122703    -0.06800
C3084       C  0.99723824  0.38839855  0.99931403     0.92400
O3085       O  0.91096668  0.39111720  0.01198008    -0.83000
C3086       C  0.88700250  0.39242207  0.00770619     0.92400
O3087       O  0.61031215  0.02224025  0.01393348    -0.83000
Mg3088     Mg  0.53748429  0.07270200  0.98578085     1.58200
O3089       O  0.97294157  0.39013621  0.00241557    -0.81400
O3090       O  0.97647768  0.08842715  0.00498225    -0.83100
O3091       O  0.84705593  0.14018057  0.34752561    -0.88600
C3092       C  0.89044884  0.20253930  0.30395637     0.87400
Mg3093     Mg  0.79817952  0.10551499  0.34731355     1.58100
O3094       O  0.87430733  0.23329060  0.34461998    -0.88400
O3095       O  0.87901540  0.17891772  0.36501571    -0.75700
C3096       C  0.72363470  0.17762480  0.32394812     0.92400
O3097       O  0.83150723  0.12812657  0.30290773    -0.75500
O3098       O  0.72302562  0.15265521  0.31987826    -0.83000
Mg3099     Mg  0.87359049  0.14365188  0.32183138     1.58000
C3100       C  0.83538068  0.28984046  0.33637588     0.92400
O3101       O  0.92102687  0.15776693  0.33466509    -0.81300
H3102       H  0.88026458  0.24439475  0.37195213    -0.06600
C3103       C  0.81131618  0.20810785  0.30232266     0.87300
O3104       O  0.78454431  0.13544541  0.36484508    -0.75800
O3105       O  0.88717862  0.19171390  0.31995591    -0.88600
O3106       O  0.85942177  0.28890041  0.33114157    -0.81400
C3107       C  0.94685344  0.28843579  0.32491303     0.92500
C3108       C  0.94549736  0.18199176  0.34007608     0.92300
Mg3109     Mg  0.79506876  0.21495001  0.34339501     1.58000
O3110       O  0.74814876  0.20154808  0.32968674    -0.81300
O3111       O  0.83684456  0.22978194  0.36254865    -0.75500
O3112       O  0.94444265  0.26314216  0.33003993    -0.81400
O3113       O  0.85926943  0.09285903  0.32496316    -0.83100
O3114       O  0.72450462  0.09468614  0.33496393    -0.81400
C3115       C  0.86476123  0.23655060  0.36009400     0.86800
O3116       O  0.78111074  0.16685502  0.34522736    -0.88500
O3117       O  0.82222351  0.21899111  0.31788665    -0.88700
O3118       O  0.79030139  0.18008948  0.30042730    -0.75700
Mg3119     Mg  0.90854381  0.21939538  0.34506752     1.58000
O3120       O  0.92329036  0.29047331  0.32037964    -0.83100
H3121       H  0.84900948  0.13632340  0.37543681    -0.06800
O3122       O  0.79451615  0.12531869  0.32092941    -0.88400
H3123       H  0.78789594  0.11321375  0.29376247    -0.06600
H3124       H  0.77102980  0.16584119  0.37268931    -0.06800
C3125       C  0.80367310  0.12148280  0.30548518     0.86700
C3126       C  0.85810744  0.15090144  0.36308022     0.87300
C3127       C  0.77821715  0.15634923  0.36128922     0.87400
H3128       H  0.82056762  0.22256504  0.28992532    -0.06800
O3129       O  0.88479867  0.22396011  0.30055378    -0.75800
Mg3130     Mg  0.76021306  0.13921919  0.32011977     1.58000
H3131       H  0.89753517  0.19303687  0.29251046    -0.06800
C3132       C  0.83399292  0.06882457  0.32995426     0.92400
O3133       O  0.74668145  0.06884546  0.34577704    -0.83000
C3134       C  0.72283291  0.06998073  0.34081748     0.92400
O3135       O  0.94568768  0.20649952  0.34469868    -0.83000
Mg3136     Mg  0.87130082  0.25374569  0.31843665     1.58200
O3137       O  0.81002413  0.06985008  0.33525561    -0.81400
O3138       O  0.80981621  0.26573596  0.34081242    -0.83100
O3139       O  0.65061002  0.35853951  0.68159719    -0.88600
C3140       C  0.61394466  0.29714746  0.63743900     0.87400
Mg3141     Mg  0.69844429  0.39503986  0.68252392     1.58100
O3142       O  0.62797608  0.26668595  0.67877849    -0.88400
O3143       O  0.61716057  0.31895615  0.69830642    -0.75700
C3144       C  0.78055806  0.32832087  0.66315994     0.92400
O3145       O  0.67072166  0.37178552  0.63769440    -0.75500
O3146       O  0.78201075  0.35428424  0.66207159    -0.83000
Mg3147     Mg  0.62638939  0.35484274  0.65577076     1.58000
C3148       C  0.67033261  0.21322018  0.67007251     0.92400
O3149       O  0.57831709  0.33919873  0.66926471    -0.81300
H3150       H  0.61950985  0.25407472  0.70590975    -0.06600
C3151       C  0.69676875  0.29674700  0.63830731     0.87300
O3152       O  0.71128428  0.36560828  0.70106184    -0.75800
O3153       O  0.61491323  0.30709853  0.65350584    -0.88600
O3154       O  0.64594585  0.21368869  0.66592798    -0.81400
C3155       C  0.55969703  0.20845703  0.65723074     0.92500
C3156       C  0.55339924  0.31353858  0.67229587     0.92300
Mg3157     Mg  0.70779386  0.28786738  0.67860682     1.58000
O3158       O  0.75475729  0.30293228  0.66361504    -0.81300
O3159       O  0.66409081  0.27026157  0.69735188    -0.75500
O3160       O  0.56009511  0.23248221  0.66336914    -0.81400
O3161       O  0.63858731  0.40558795  0.65876732    -0.83100
O3162       O  0.77424238  0.41072411  0.67390206    -0.81400
C3163       C  0.63621583  0.26298418  0.69439601     0.86800
O3164       O  0.71913344  0.33566832  0.68211945    -0.88500
O3165       O  0.68299649  0.28513514  0.65329189    -0.88700
O3166       O  0.71832786  0.32479364  0.63741437    -0.75700
Mg3167     Mg  0.59192653  0.27804760  0.67802210     1.58000
O3168       O  0.58435810  0.20847777  0.65249151    -0.83100
H3169       H  0.64439984  0.36166943  0.70925360    -0.06800
O3170       O  0.70694022  0.37662180  0.65665567    -0.88400
H3171       H  0.71534427  0.38778754  0.62932104    -0.06600
H3172       H  0.72449448  0.33565276  0.71001527    -0.06800
C3173       C  0.69863726  0.37939979  0.64084279     0.86700
C3174       C  0.63761958  0.34727425  0.69681830     0.87300
C3175       C  0.71880350  0.34523351  0.69815402     0.87400
H3176       H  0.69016794  0.28285928  0.62565736    -0.06800
O3177       O  0.62141206  0.27689364  0.63414784    -0.75800
Mg3178     Mg  0.74328142  0.36537542  0.65827874     1.58000
H3179       H  0.60736661  0.30647024  0.62585571    -0.06800
C3180       C  0.66376605  0.43014917  0.66295622     0.92400
O3181       O  0.74844000  0.43435444  0.68267404    -0.83000
C3182       C  0.77358275  0.43476561  0.67898268     0.92400
O3183       O  0.55320010  0.28855669  0.67533179    -0.83000
Mg3184     Mg  0.63494537  0.24811362  0.65244187     1.58200
O3185       O  0.68755136  0.42957440  0.66850982    -0.81400
O3186       O  0.69570530  0.23764549  0.67405536    -0.83100
C3187       C  0.84081425  0.30761724  0.75300735    -0.06400
C3188       C  0.86359513  0.31939081  0.76712930    -0.17600
C3189       C  0.86214321  0.33686237  0.78215673     0.10800
C3190       C  0.83666550  0.34146474  0.78368828    -0.06300
C3191       C  0.81198941  0.32636400  0.77106776    -0.17600
C3192       C  0.81368847  0.30933901  0.75583848     0.10800
S3193       S  0.89480058  0.35662007  0.79770818    -0.32600
S3194       S  0.78136237  0.29182157  0.74001101    -0.32600
H3195       H  0.78699295  0.26835429  0.73390437     0.28800
H3196       H  0.91098512  0.34200674  0.79136118     0.28800
H3197       H  0.88450026  0.31817849  0.76524836     0.19400
H3198       H  0.79217741  0.32961347  0.77236803     0.19400
C3199       C  0.84615791  0.29959248  0.58194764    -0.06400
C3200       C  0.82774097  0.31283511  0.57863598    -0.17600
C3201       C  0.81117500  0.30694448  0.56198798     0.10800
C3202       C  0.81273205  0.28708281  0.54850267    -0.06300
C3203       C  0.83371576  0.27660644  0.55089149    -0.17600
C3204       C  0.85036213  0.28251388  0.56753241     0.10800
S3205       S  0.78548606  0.32214764  0.55974538    -0.32600
S3206       S  0.87205357  0.26320795  0.57083821    -0.32600
H3207       H  0.89990074  0.29060623  0.57440845     0.28800
H3208       H  0.78319102  0.31965638  0.54002259     0.28800
H3209       H  0.82513913  0.32672891  0.58945944     0.19400
H3210       H  0.83431497  0.26069198  0.54073226     0.19400
C3211       C  0.99202945  0.32998196  0.58190527    -0.06400
C3212       C  0.97182314  0.32297008  0.56656165    -0.17600
C3213       C  0.97369355  0.30731649  0.55058225     0.10800
C3214       C  0.99762726  0.30032505  0.54915006    -0.06300
C3215       C  0.52158450  0.31269755  0.56286601    -0.17600
C3216       C  0.01831167  0.32664477  0.57926130     0.10800
S3217       S  0.94258857  0.29202782  0.53374416    -0.32600
S3218       S  0.54920111  0.34018283  0.59632452    -0.32600
H3219       H  0.54536249  0.36440010  0.60322274     0.28800
H3220       H  0.92800728  0.30804786  0.54041030     0.28800
H3221       H  0.95223162  0.32643820  0.56795552     0.19400
H3222       H  0.54026533  0.30767203  0.56186385     0.19400
C3223       C  0.87793838  0.49104224  0.75370947    -0.06400
C3224       C  0.89916741  0.48479556  0.76247135    -0.17600
C3225       C  0.88984967  0.46342134  0.77729450     0.10800
C3226       C  0.85852783  0.44772032  0.78364389    -0.06300
C3227       C  0.83774783  0.45529229  0.77568273    -0.17600
C3228       C  0.84717486  0.47706074  0.76107784     0.10800
S3229       S  0.91847599  0.45533458  0.78657122    -0.32600
S3230       S  0.81790618  0.98572450  0.75211888    -0.32600
H3231       H  0.83897846  0.01713849  0.74853628     0.28800
H3232       H  0.90442019  0.44537698  0.80445536     0.28800
H3233       H  0.92285069  0.49557362  0.75719555     0.19400
H3234       H  0.81370123  0.44325373  0.78035705     0.19400
C3235       C  0.83766251  0.00147260  0.58633663    -0.06400
C3236       C  0.80981529  0.97306042  0.58505416    -0.17600
C3237       C  0.78991856  0.96652466  0.56975015     0.10800
C3238       C  0.79702976  0.98942047  0.55587790    -0.06300
C3239       C  0.82602499  0.01650176  0.55628026    -0.17600
C3240       C  0.84701039  0.02193698  0.57063689     0.10800
S3241       S  0.75576664  0.42950292  0.56951905    -0.32600
S3242       S  0.88488587  0.05600031  0.56813335    -0.32600
H3243       H  0.90043688  0.04313938  0.57743406     0.28800
H3244       H  0.75132942  0.42915271  0.54995376     0.28800
H3245       H  0.80255839  0.95653140  0.59649766     0.19400
H3246       H  0.83209888  0.03405999  0.54558885     0.19400
C3247       C  0.94942381  0.15473394  0.58374282    -0.06400
C3248       C  0.98092556  0.17073782  0.57818347    -0.17600
C3249       C  0.99119832  0.18957764  0.56215089     0.10800
C3250       C  0.96969928  0.19273578  0.55116363    -0.06300
C3251       C  0.93805113  0.17552883  0.55595402    -0.17600
C3252       C  0.92768175  0.15685748  0.57213426     0.10800
S3253       S  0.03234662  0.21074880  0.55718823    -0.32600
S3254       S  0.88694072  0.13884587  0.57791970    -0.32600
H3255       H  0.89182483  0.14772500  0.59699687     0.28800
H3256       H  0.03002946  0.21429423  0.53774786     0.28800
H3257       H  0.99794868  0.16897138  0.58654691     0.19400
H3258       H  0.92157225  0.17863049  0.54786149     0.19400
C3259       C  0.51216822  0.37265182  0.78778105    -0.06400
C3260       C  0.51882711  0.35175784  0.77868869    -0.17600
C3261       C  0.50480851  0.33809326  0.76167540     0.10800
C3262       C  0.48361262  0.34544024  0.75372841    -0.06300
C3263       C  0.47456382  0.36373501  0.76387791    -0.17600
C3264       C  0.48890167  0.37771428  0.78073090     0.10800
S3265       S  0.01310746  0.30965265  0.75210870    -0.32600
S3266       S  0.47977713  0.40505915  0.79117323    -0.32600
H3267       H  0.48853579  0.40284339  0.80956935     0.28800
H3268       H  0.98458349  0.29121133  0.74314810     0.28800
H3269       H  0.53700206  0.34818227  0.78403191     0.19400
H3270       H  0.45787036  0.36900657  0.75796211     0.19400
C3271       C  0.99756888  0.14762792  0.74901065    -0.06400
C3272       C  0.99114366  0.12643724  0.76378713    -0.17600
C3273       C  0.51263844  0.13192387  0.77761816     0.10800
C3274       C  0.54047191  0.16068093  0.77780985    -0.06300
C3275       C  0.54466443  0.18345073  0.76478735    -0.17600
C3276       C  0.52287329  0.17733913  0.75070665     0.10800
S3277       S  0.50445913  0.10100723  0.79381545    -0.32600
S3278       S  0.53059962  0.20864895  0.73504403    -0.32600
H3279       H  0.00251997  0.20126978  0.73270472     0.28800
H3280       H  0.53504878  0.10710179  0.79529612     0.28800
H3281       H  0.97041611  0.10383596  0.76349998     0.19400
H3282       H  0.56574582  0.20579562  0.76512771     0.19400
C3283       C  0.61030246  0.46690432  0.78697148    -0.06400
C3284       C  0.62661931  0.45709810  0.77524071    -0.17600
C3285       C  0.63602068  0.46886460  0.75692581     0.10800
C3286       C  0.63015366  0.49186679  0.75029634    -0.06300
C3287       C  0.61229700  0.00169321  0.76214231    -0.17600
C3288       C  0.60676981  0.49166431  0.78091425     0.10800
S3289       S  0.65501102  0.45345312  0.74260201    -0.32600
S3290       S  0.57981933  0.00228806  0.79360418    -0.32600
H3291       H  0.58503350  0.99367018  0.81136557     0.28800
H3292       H  0.63023055  0.43933864  0.72993661     0.28800
H3293       H  0.62893843  0.43770468  0.77958913     0.19400
H3294       H  0.60738741  0.01913731  0.75715806     0.19400
C3295       C  0.66934281  0.14171200  0.75086768    -0.06400
C3296       C  0.65137287  0.12102499  0.76536779    -0.17600
C3297       C  0.63480276  0.12827944  0.77855150     0.10800
C3298       C  0.63684826  0.15738377  0.77780354    -0.06300
C3299       C  0.65695842  0.17910888  0.76447190    -0.17600
C3300       C  0.67351873  0.17185222  0.75126102     0.10800
S3301       S  0.60970826  0.09840543  0.79500907    -0.32600
S3302       S  0.69903606  0.20196179  0.73510047    -0.32600
H3303       H  0.72048121  0.19169606  0.73341229     0.28800
H3304       H  0.58604260  0.10571986  0.79574164     0.28800
H3305       H  0.64783756  0.09788648  0.76547255     0.19400
H3306       H  0.65905997  0.20165763  0.76400022     0.19400
C3307       C  0.66577263  0.00326120  0.57887282    -0.06400
C3308       C  0.66709775  0.97598663  0.58053454    -0.17600
C3309       C  0.68201579  0.96746484  0.56686862     0.10800
C3310       C  0.69757065  0.98718706  0.55133343    -0.06300
C3311       C  0.69339263  0.01253856  0.54855549    -0.17600
C3312       C  0.67668711  0.01997477  0.56163922     0.10800
S3313       S  0.68173574  0.93181369  0.57059439    -0.32600
S3314       S  0.67113346  0.05158956  0.55557319    -0.32600
H3315       H  0.64037285  0.03695059  0.56248181     0.28800
H3316       H  0.68709371  0.92749916  0.55158915     0.28800
H3317       H  0.65773431  0.96176953  0.59305351     0.19400
H3318       H  0.70442360  0.02757039  0.53652481     0.19400
C3319       C  0.70157566  0.15678932  0.58218341    -0.06400
C3320       C  0.69063500  0.17722995  0.57912008    -0.17600
C3321       C  0.69775955  0.19430356  0.56236921     0.10800
C3322       C  0.71625222  0.19100509  0.54843071    -0.06300
C3323       C  0.72458877  0.16842530  0.55067415    -0.17600
C3324       C  0.71784250  0.15158666  0.56747820     0.10800
S3325       S  0.68602952  0.22266887  0.55947545    -0.32600
S3326       S  0.73381805  0.12667027  0.57002958    -0.32600
H3327       H  0.74216788  0.13417127  0.58900853     0.28800
H3328       H  0.67038957  0.21746983  0.57692959     0.28800
H3329       H  0.67724231  0.18043978  0.59011073     0.19400
H3330       H  0.73959874  0.16652846  0.54021883     0.19400
C3331       C  0.48578017  0.31216327  0.91718508    -0.06400
C3332       C  0.48576447  0.34016868  0.91846175    -0.17600
C3333       C  0.50109516  0.36348273  0.90497017     0.10800
C3334       C  0.51715760  0.35908179  0.88987228    -0.06300
C3335       C  0.51366781  0.32979984  0.88717874    -0.17600
C3336       C  0.49729554  0.30602059  0.90029992     0.10800
S3337       S  0.50148452  0.39926329  0.90858648    -0.32600
S3338       S  0.99289634  0.26850269  0.89516851    -0.32600
H3339       H  0.96405891  0.25182535  0.90459713     0.28800
H3340       H  0.50631563  0.40827323  0.88951279     0.28800
H3341       H  0.47611193  0.34516836  0.93084326     0.19400
H3342       H  0.52503791  0.32587379  0.87524393     0.19400
C3343       C  0.53694565  0.20538303  0.91486464    -0.06400
C3344       C  0.52648964  0.17391510  0.91184860    -0.17600
C3345       C  0.53410573  0.16368965  0.89527516     0.10800
C3346       C  0.55252150  0.18512640  0.88113071    -0.06300
C3347       C  0.56099126  0.21612016  0.88342797    -0.17600
C3348       C  0.55416606  0.22661286  0.90016485     0.10800
S3349       S  0.52198367  0.12331797  0.89354538    -0.32600
S3350       S  0.57143529  0.26781917  0.90248132    -0.32600
H3351       H  0.58287703  0.26876237  0.92065023     0.28800
H3352       H  0.52451213  0.12290579  0.87377109     0.28800
H3353       H  0.51272265  0.15710210  0.92262194     0.19400
H3354       H  0.57617134  0.23289509  0.87300134     0.19400
C3355       C  0.82820150  0.31037685  0.91986457    -0.06400
C3356       C  0.80481710  0.29619843  0.90620377    -0.17600
C3357       C  0.80420989  0.31234180  0.89038318     0.10800
C3358       C  0.82822560  0.34299281  0.88751958    -0.06300
C3359       C  0.85363270  0.35581390  0.89970305    -0.17600
C3360       C  0.85405011  0.33987330  0.91580656     0.10800
S3361       S  0.77101558  0.29329781  0.87522500    -0.32600
S3362       S  0.88701786  0.35829151  0.93125191    -0.32600
H3363       H  0.90614267  0.38327649  0.91931911     0.28800
H3364       H  0.76818932  0.31926867  0.87169734     0.28800
H3365       H  0.78517590  0.27327405  0.90863672     0.19400
H3366       H  0.87216998  0.37930786  0.89726093     0.19400
C3367       C  0.64895689  0.18614053  0.87980934    -0.06400
C3368       C  0.66949840  0.21736629  0.88360577    -0.17600
C3369       C  0.68640425  0.22644710  0.90024775     0.10800
C3370       C  0.68440753  0.20372577  0.91285640    -0.06300
C3371       C  0.66572595  0.17240994  0.90820797    -0.17600
C3372       C  0.64787894  0.16343023  0.89189330     0.10800
S3373       S  0.70617564  0.26706585  0.90575737    -0.32600
S3374       S  0.62193932  0.12278722  0.88807846    -0.32600
H3375       H  0.61895927  0.12504594  0.86855310     0.28800
H3376       H  0.69614294  0.26279063  0.92472716     0.28800
H3377       H  0.66936076  0.23482817  0.87474141     0.19400
H3378       H  0.66425564  0.15478913  0.91763425     0.19400
C3379       C  0.61896091  0.45397573  0.89084067    -0.06400
C3380       C  0.61429033  0.47128124  0.90473399    -0.17600
C3381       C  0.63557252  0.48588600  0.91934888     0.10800
C3382       C  0.66257452  0.48325761  0.92005818    -0.06300
C3383       C  0.66852233  0.46853913  0.90489024    -0.17600
C3384       C  0.64683682  0.45330299  0.89069305     0.10800
S3385       S  0.62678543  0.50642571  0.93715295    -0.32600
S3386       S  0.65512988  0.43133682  0.87377518    -0.32600
H3387       H  0.62458201  0.40645752  0.87246127     0.28800
H3388       H  0.59780161  0.49981834  0.93025961     0.28800
H3389       H  0.59289670  0.47182733  0.90464196     0.19400
H3390       H  0.68994683  0.96880594  0.90427559     0.19400
C3391       C  0.80147948  0.42352975  0.88358856    -0.06400
C3392       C  0.82226187  0.45255894  0.89102194    -0.17600
C3393       C  0.81323739  0.46529570  0.90572520     0.10800
C3394       C  0.78303734  0.44813500  0.91388270    -0.06300
C3395       C  0.76161882  0.42010594  0.90548578    -0.17600
C3396       C  0.77044163  0.40779379  0.89042882     0.10800
S3397       S  0.84332583  0.00573458  0.91345423    -0.32600
S3398       S  0.74170841  0.37061301  0.88147075    -0.32600
H3399       H  0.75538875  0.37434730  0.86347403     0.28800
H3400       H  0.82170421  0.01534172  0.91704187     0.28800
H3401       H  0.84607199  0.46478193  0.88590577     0.19400
H3402       H  0.73823582  0.40700382  0.91121426     0.19400
C3403       C  0.94638535  0.31318145  0.12055746    -0.06400
C3404       C  0.96726317  0.33674362  0.10838750    -0.17600
C3405       C  0.97905305  0.33012308  0.09204979     0.10800
C3406       C  0.96907535  0.29902442  0.08732622    -0.06300
C3407       C  0.95019322  0.27582783  0.10039583    -0.17600
C3408       C  0.93893325  0.28256338  0.11685231     0.10800
S3409       S  0.50664695  0.36206103  0.07819306    -0.32600
S3410       S  0.91212934  0.25061292  0.13150424    -0.32600
H3411       H  0.91768972  0.26788610  0.14813697     0.28800
H3412       H  0.52538145  0.34912919  0.07422531     0.28800
H3413       H  0.97278679  0.36026686  0.11097161     0.19400
H3414       H  0.94282614  0.25193410  0.09737298     0.19400
C3415       C  0.85190541  0.31723709  0.11805891    -0.06400
C3416       C  0.82144040  0.29250150  0.11951445    -0.17600
C3417       C  0.80065702  0.28635514  0.10496704     0.10800
C3418       C  0.81180511  0.30258394  0.08771682    -0.06300
C3419       C  0.84121606  0.32940497  0.08722794    -0.17600
C3420       C  0.86089180  0.33746515  0.10251037     0.10800
S3421       S  0.76045154  0.25890943  0.10968548    -0.32600
S3422       S  0.89823258  0.37238321  0.10075458    -0.32600
H3423       H  0.90272740  0.37689598  0.12031629     0.28800
H3424       H  0.74914897  0.27408980  0.09852268     0.28800
H3425       H  0.81401907  0.27760793  0.13181264     0.19400
H3426       H  0.84964242  0.34353914  0.07462299     0.19400
C3427       C  0.84739886  0.50065254  0.42013377    -0.06400
C3428       C  0.83783417  0.47830014  0.43459154    -0.17600
C3429       C  0.82086585  0.47880318  0.45036295     0.10800
C3430       C  0.81507044  0.50334565  0.45253488    -0.06300
C3431       C  0.82940341  0.02797520  0.43933634    -0.17600
C3432       C  0.84547635  0.52733137  0.42370421     0.10800
S3433       S  0.80225237  0.44534392  0.46561664    -0.32600
S3434       S  0.86099650  0.05945342  0.40718970    -0.32600
H3435       H  0.88506768  0.05525252  0.40007239     0.28800
H3436       H  0.81929387  0.43159284  0.45932859     0.28800
H3437       H  0.83988044  0.45806007  0.43242443     0.19400
H3438       H  0.82466244  0.04669601  0.44087801     0.19400
C3439       C  0.80862106  0.35330149  0.41853739    -0.06400
C3440       C  0.82212328  0.33498027  0.42112231    -0.17600
C3441       C  0.81408660  0.31528068  0.43658319     0.10800
C3442       C  0.79185699  0.31362919  0.44968799    -0.06300
C3443       C  0.78052907  0.33403563  0.44808903    -0.17600
C3444       C  0.78882038  0.35404105  0.43265148     0.10800
S3445       S  0.82974688  0.28988277  0.43750769    -0.32600
S3446       S  0.76968455  0.37607273  0.43023583    -0.32600
H3447       H  0.79704971  0.40387073  0.42604913     0.28800
H3448       H  0.82546254  0.28441259  0.45703360     0.28800
H3449       H  0.83776281  0.33474601  0.41043969     0.19400
H3450       H  0.76284843  0.33222052  0.45791724     0.19400
C3451       C  0.85648377  0.34351273  0.21979127    -0.06400
C3452       C  0.84858297  0.36636174  0.21768152    -0.17600
C3453       C  0.83198730  0.37176619  0.23185386     0.10800
C3454       C  0.82422679  0.35451361  0.24896547    -0.06300
C3455       C  0.82855848  0.32894503  0.24973450    -0.17600
C3456       C  0.84447215  0.32326924  0.23536681     0.10800
S3457       S  0.82362963  0.40248310  0.22815989    -0.32600
S3458       S  0.85160668  0.29178405  0.23862523    -0.32600
H3459       H  0.85598598  0.28788489  0.21938672     0.28800
H3460       H  0.83470804  0.40966991  0.20944353     0.28800
H3461       H  0.85755800  0.38152002  0.20554100     0.19400
H3462       H  0.82188561  0.31473568  0.26231689     0.19400
C3463       C  0.52074124  0.34203172  0.41591606    -0.06400
C3464       C  0.54301551  0.34728828  0.42965273    -0.17600
C3465       C  0.53759125  0.32541864  0.44359178     0.10800
C3466       C  0.50851943  0.29797358  0.44470334    -0.06300
C3467       C  0.48536766  0.29357392  0.43190675    -0.17600
C3468       C  0.49103203  0.31528389  0.41767925     0.10800
S3469       S  0.56959251  0.33301659  0.45858112    -0.32600
S3470       S  0.45947974  0.30747148  0.40230187    -0.32600
H3471       H  0.46876865  0.33868596  0.39941369     0.28800
H3472       H  0.56284230  0.30231724  0.45992523     0.28800
H3473       H  0.56594533  0.36752005  0.42865014     0.19400
H3474       H  0.46291496  0.27261664  0.43271512     0.19400
C3475       C  0.67275429  0.46360564  0.41503398    -0.06400
C3476       C  0.69644001  0.49442343  0.41729812    -0.17600
C3477       C  0.71439165  0.50422505  0.43349333     0.10800
C3478       C  0.70945465  0.48269287  0.44779328    -0.06300
C3479       C  0.68467774  0.45226138  0.44615431    -0.17600
C3480       C  0.66601469  0.44251266  0.43001619     0.10800
S3481       S  0.74471125  0.54420523  0.43456797    -0.32600
S3482       S  0.63581409  0.40259044  0.42812308    -0.32600
H3483       H  0.63699209  0.39421254  0.44686314     0.28800
H3484       H  0.74673930  0.54559485  0.45435054     0.28800
H3485       H  0.70115789  0.51118271  0.40628298     0.19400
H3486       H  0.68142733  0.43562918  0.45691965     0.19400
C3487       C  0.00226272  0.38948823  0.25103047    -0.06400
C3488       C  0.00387889  0.41065895  0.23762609    -0.17600
C3489       C  0.98485268  0.40047766  0.22178756     0.10800
C3490       C  0.96414683  0.36856670  0.21930063    -0.06300
C3491       C  0.96460216  0.34742242  0.23181894    -0.17600
C3492       C  0.98353814  0.35746026  0.24755690     0.10800
S3493       S  0.98576625  0.42925686  0.20627941    -0.32600
S3494       S  0.47810903  0.32692809  0.26341913    -0.32600
H3495       H  0.50975218  0.34254485  0.26802876     0.28800
H3496       H  0.97522050  0.41034313  0.19024443     0.28800
H3497       H  0.01871798  0.43519219  0.24001349     0.19400
H3498       H  0.94852921  0.32295168  0.22999140     0.19400
C3499       C  0.97235142  0.14771798  0.11213707    -0.06400
C3500       C  0.99826480  0.14814332  0.10387975    -0.17600
C3501       C  0.01615592  0.16986274  0.08990080     0.10800
C3502       C  0.00788190  0.19158013  0.08411812    -0.06300
C3503       C  0.98385872  0.19296300  0.09383388    -0.17600
C3504       C  0.96583743  0.17116409  0.10759591     0.10800
S3505       S  0.04874451  0.16903487  0.07917465    -0.32600
S3506       S  0.93284594  0.17264670  0.11706409    -0.32600
H3507       H  0.92906083  0.15624779  0.13376255     0.28800
H3508       H  0.04638493  0.14451702  0.08998311     0.28800
H3509       H  0.00322073  0.13019750  0.10758824     0.19400
H3510       H  0.97721139  0.20949281  0.08956787     0.19400
C3511       C  0.83734996  0.01369426  0.07867027    -0.06400
C3512       C  0.86732357  0.01772467  0.07713660    -0.17600
C3513       C  0.88914018  0.03212049  0.09144447     0.10800
C3514       C  0.88135351  0.04355155  0.10760730    -0.06300
C3515       C  0.85064751  0.03683250  0.11001970    -0.17600
C3516       C  0.82837830  0.02138578  0.09604585     0.10800
S3517       S  0.92559802  0.53380464  0.08828953    -0.32600
S3518       S  0.78901876  0.01268738  0.10062352    -0.32600
H3519       H  0.79280787  0.02160350  0.11969162     0.28800
H3520       H  0.93451088  0.03903034  0.10703335     0.28800
H3521       H  0.87287066  0.50848040  0.06495683     0.19400
H3522       H  0.84456086  0.04530665  0.12247814     0.19400
C3523       C  0.86232836  0.00114787  0.24665709    -0.06400
C3524       C  0.87866849  0.99285391  0.23389713    -0.17600
C3525       C  0.88812281  0.00715146  0.21617765     0.10800
C3526       C  0.88075957  0.02975341  0.21117451    -0.06300
C3527       C  0.86055992  0.03451008  0.22279842    -0.17600
C3528       C  0.85184248  0.52070472  0.24099922     0.10800
S3529       S  0.91268827  0.99938567  0.20099281    -0.32600
S3530       S  0.82780678  0.53021163  0.25543683    -0.32600
H3531       H  0.81083699  0.50103085  0.26406044     0.28800
H3532       H  0.90926466  0.97386770  0.21119714     0.28800
H3533       H  0.88590117  0.97687232  0.23833708     0.19400
H3534       H  0.85480275  0.05186949  0.21894479     0.19400
C3535       C  0.67983703  0.15250667  0.11366567    -0.06400
C3536       C  0.65140540  0.14654479  0.10619435    -0.17600
C3537       C  0.65034787  0.16216877  0.09002412     0.10800
C3538       C  0.67828818  0.18405914  0.08095567    -0.06300
C3539       C  0.70656160  0.19071003  0.08900125    -0.17600
C3540       C  0.70765837  0.17536903  0.10509466     0.10800
S3541       S  0.61282874  0.15254196  0.08138992    -0.32600
S3542       S  0.74532684  0.18336997  0.11279714    -0.32600
H3543       H  0.73693654  0.17621184  0.13190201     0.28800
H3544       H  0.62239426  0.18196675  0.07394413     0.28800
H3545       H  0.62993498  0.12847164  0.11239297     0.19400
H3546       H  0.72822001  0.20681310  0.08204094     0.19400
C3547       C  0.70344158  0.07038456  0.11743711    -0.06400
C3548       C  0.68118014  0.04274828  0.10916516    -0.17600
C3549       C  0.68862759  0.03074478  0.09332540     0.10800
C3550       C  0.71890231  0.04730334  0.08528890    -0.06300
C3551       C  0.74179319  0.07339123  0.09471135    -0.17600
C3552       C  0.73440995  0.08495330  0.11071136     0.10800
S3553       S  0.65925908  0.99431450  0.08366692    -0.32600
S3554       S  0.76485700  0.12001626  0.12093631    -0.32600
H3555       H  0.75133555  0.11510012  0.13904207     0.28800
H3556       H  0.63584972  0.98819275  0.09712409     0.28800
H3557       H  0.65747958  0.03172805  0.11440133     0.19400
H3558       H  0.76530044  0.08569907  0.08910186     0.19400
C3559       C  0.67180368  0.05748267  0.22017025    -0.06400
C3560       C  0.69205644  0.06376019  0.23528627    -0.17600
C3561       C  0.68516526  0.04213438  0.24977468     0.10800
C3562       C  0.65698964  0.51432335  0.24957777    -0.06300
C3563       C  0.63845664  0.50709707  0.23341764    -0.17600
C3564       C  0.64525163  0.52882119  0.21905510     0.10800
S3565       S  0.71330774  0.05276407  0.26816643    -0.32600
S3566       S  0.61708158  0.51809973  0.20064023    -0.32600
H3567       H  0.61814706  0.54658887  0.19994103     0.28800
H3568       H  0.70712161  0.02249233  0.27124461     0.28800
H3569       H  0.71287392  0.08623793  0.23618557     0.19400
H3570       H  0.61683053  0.48530341  0.23268172     0.19400
C3571       C  0.51669676  0.16823750  0.41935188    -0.06400
C3572       C  0.53851661  0.18480705  0.43337855    -0.17600
C3573       C  0.53217914  0.19994144  0.44789254     0.10800
C3574       C  0.50285593  0.19778331  0.44895289    -0.06300
C3575       C  0.47975303  0.17815188  0.43635148    -0.17600
C3576       C  0.48629346  0.16330935  0.42159083     0.10800
S3577       S  0.56418834  0.22560205  0.46258251    -0.32600
S3578       S  0.45609441  0.13936120  0.40524807    -0.32600
H3579       H  0.43227173  0.14253424  0.41381114     0.28800
H3580       H  0.54657348  0.22092949  0.47907548     0.28800
H3581       H  0.56185643  0.18875977  0.43197049     0.19400
H3582       H  0.45726737  0.17642555  0.43722925     0.19400
C3583       C  0.66839733  0.20253106  0.41280227    -0.06400
C3584       C  0.69173029  0.19487992  0.41412192    -0.17600
C3585       C  0.70786919  0.19943470  0.43086356     0.10800
C3586       C  0.70114977  0.21257145  0.44654418    -0.06300
C3587       C  0.67564127  0.21697281  0.44593546    -0.17600
C3588       C  0.65951596  0.21261259  0.42918569     0.10800
S3589       S  0.73917896  0.19135811  0.43091770    -0.32600
S3590       S  0.63053616  0.22392528  0.42921841    -0.32600
H3591       H  0.63923342  0.23850158  0.41147663     0.28800
H3592       H  0.74070182  0.19011464  0.45066895     0.28800
H3593       H  0.69788775  0.18587971  0.40192574     0.19400
H3594       H  0.67084622  0.22768166  0.45782046     0.19400
C3595       C  0.96547491  0.13407009  0.21574811    -0.06400
C3596       C  0.99730639  0.14476585  0.21549828    -0.17600
C3597       C  0.51598260  0.15923394  0.23151679     0.10800
C3598       C  0.00020299  0.15733806  0.24895908    -0.06300
C3599       C  0.96914470  0.15013837  0.24849204    -0.17600
C3600       C  0.95212538  0.13988989  0.23183059     0.10800
S3601       S  0.55748653  0.17917401  0.22840932    -0.32600
S3602       S  0.91245078  0.13161850  0.23153779    -0.32600
H3603       H  0.91236391  0.14348337  0.24954578     0.28800
H3604       H  0.56264870  0.20420220  0.23993772     0.28800
H3605       H  0.50960732  0.14233210  0.20309361     0.19400
H3606       H  0.95781633  0.15149520  0.26128881     0.19400
C3607       C  0.64569972  0.17886190  0.24526553    -0.06400
C3608       C  0.67716867  0.19078808  0.24057282    -0.17600
C3609       C  0.68630545  0.17668721  0.22675065     0.10800
C3610       C  0.66352652  0.15036606  0.21715557    -0.06300
C3611       C  0.63217161  0.13944007  0.22114813    -0.17600
C3612       C  0.62307399  0.15256050  0.23544535     0.10800
S3613       S  0.72728576  0.19185040  0.22302170    -0.32600
S3614       S  0.58283964  0.13108699  0.24260757    -0.32600
H3615       H  0.58932398  0.13219188  0.26189275     0.28800
H3616       H  0.72513032  0.18045040  0.20462643     0.28800
H3617       H  0.69478097  0.21038597  0.24827491     0.19400
H3618       H  0.61471946  0.11850816  0.21437881     0.19400
O3619       O  0.58316771  0.69941629  0.36332420    -0.88600
C3620       C  0.60806488  0.63647463  0.34597441     0.87400
Mg3621     Mg  0.53864239  0.69476179  0.35840681     1.58100
O3622       O  0.64190962  0.70671904  0.32049517    -0.88400
O3623       O  0.63251853  0.73265612  0.35974815    -0.75700
C3624       C  0.51629197  0.66319028  0.26719321     0.92400
O3625       O  0.53795739  0.62625528  0.35926086    -0.75500
O3626       O  0.99991976  0.65886921  0.28276311    -0.83000
Mg3627     Mg  0.58216974  0.65963713  0.37527013     1.58000
C3628       C  0.63787896  0.69260186  0.26197803     0.92400
O3629       O  0.62347925  0.68658149  0.39416520    -0.81300
H3630       H  0.66889828  0.75257387  0.31844476    -0.06600
C3631       C  0.56401025  0.63489969  0.29795608     0.87300
O3632       O  0.55836521  0.72805853  0.33305325    -0.75800
O3633       O  0.61214378  0.66120934  0.35228652    -0.88600
O3634       O  0.65264594  0.69720970  0.27720026    -0.81400
C3635       C  0.69481347  0.67876482  0.32327227     0.92500
C3636       C  0.65260128  0.69747131  0.39427355     0.92300
Mg3637     Mg  0.58646512  0.69985244  0.28603878     1.58000
O3638       O  0.54466633  0.67080244  0.26761887    -0.81300
O3639       O  0.63115531  0.73429219  0.30159357    -0.75500
O3640       O  0.68656353  0.68668911  0.33842288    -0.81400
O3641       O  0.55296220  0.66095430  0.39997187    -0.83100
O3642       O  0.98203054  0.67398720  0.32385318    -0.81400
C3643       C  0.64836946  0.73195482  0.31373030     0.86800
O3644       O  0.55728481  0.70016548  0.30900415    -0.88500
O3645       O  0.58630336  0.66139039  0.29914568    -0.88700
O3646       O  0.53672750  0.62872445  0.30227622    -0.75700
Mg3647     Mg  0.65515276  0.70537221  0.34885129     1.58000
O3648       O  0.67912215  0.67219509  0.30826168    -0.83100
H3649       H  0.60140826  0.74390522  0.37008678    -0.06800
O3650       O  0.52739895  0.65480154  0.34120282    -0.88400
H3651       H  0.50006145  0.60896535  0.34263078    -0.06600
H3652       H  0.57157069  0.74505566  0.30647763    -0.06800
C3653       C  0.52069764  0.62928098  0.34753932     0.86700
C3654       C  0.60534293  0.72591800  0.36479092     0.87300
C3655       C  0.56253294  0.72511780  0.31562731     0.87400
H3656       H  0.56781171  0.61649938  0.29336368    -0.06800
O3657       O  0.61272077  0.63340827  0.32864916    -0.75800
Mg3658     Mg  0.51417290  0.65637313  0.31280076     1.58000
H3659       H  0.59966916  0.61682779  0.35531273    -0.06800
C3660       C  0.52872443  0.66325165  0.40047201     0.92400
O3661       O  0.49165604  0.68987031  0.35360375    -0.83000
C3662       C  0.97439641  0.68188376  0.33924866     0.92400
O3663       O  0.66860412  0.70303483  0.37911343    -0.83000
Mg3664     Mg  0.63165325  0.66694113  0.30349111     1.58200
O3665       O  0.51706161  0.66642808  0.38541967    -0.81400
O3666       O  0.61368526  0.69482822  0.26158228    -0.83100
C3667       C  0.67646283  0.58467649  0.20798710    -0.11200
C3668       C  0.67314491  0.60787990  0.21682020    -0.05000
C3669       C  0.67174289  0.63084329  0.20652474    -0.11100
C3670       C  0.67343705  0.63075403  0.18658771     0.09800
C3671       C  0.67843053  0.60844505  0.17735994    -0.02900
C3672       C  0.68065015  0.58573496  0.18808086     0.09600
C3673       C  0.68696723  0.56479768  0.17861904    -0.12900
C3674       C  0.69087950  0.56595689  0.15902458    -0.12900
C3675       C  0.68770905  0.58751040  0.14816380     0.09600
C3676       C  0.68083341  0.60861341  0.15733826    -0.02900
C3677       C  0.67022665  0.65228947  0.17566777    -0.13100
C3678       C  0.67172754  0.65189774  0.15597903    -0.13100
C3679       C  0.67700257  0.63029326  0.14653220     0.09800
C3680       C  0.67929046  0.63003500  0.12656977    -0.11100
C3681       C  0.68636656  0.60931017  0.11793807    -0.05000
C3682       C  0.69168400  0.58901194  0.12833736    -0.11200
H3683       H  0.68935693  0.54762179  0.18638038     0.07100
H3684       H  0.69610134  0.54960994  0.15237683     0.07100
H3685       H  0.66643060  0.66959857  0.18230451     0.07200
H3686       H  0.66899177  0.66883089  0.14817771     0.07200
H3687       H  0.66985444  0.60710720  0.23201699     0.03700
H3688       H  0.68921363  0.60996576  0.10269668     0.03700
C3689       C  0.94543563  0.60950363  0.20213135    -0.11200
C3690       C  0.92515054  0.58121363  0.21045414    -0.05000
C3691       C  0.90344842  0.55619656  0.20014407    -0.11100
C3692       C  0.90330834  0.55814515  0.18035689     0.09800
C3693       C  0.92529582  0.58608275  0.17130135    -0.02900
C3694       C  0.94637593  0.61206385  0.18222175     0.09600
C3695       C  0.96745965  0.63955700  0.17294662    -0.12900
C3696       C  0.96878725  0.64123320  0.15330819    -0.12900
C3697       C  0.94827385  0.61583644  0.14228406     0.09600
C3698       C  0.92596337  0.58812977  0.15133739    -0.02900
C3699       C  0.88219257  0.53306148  0.16946197    -0.13100
C3700       C  0.88275708  0.53514683  0.14985027    -0.13100
C3701       C  0.90424336  0.56251153  0.14049012     0.09800
C3702       C  0.90477477  0.56497779  0.12055869    -0.11100
C3703       C  0.92748720  0.59228891  0.11192100    -0.05000
C3704       C  0.94924254  0.61743727  0.12240002    -0.11200
H3705       H  0.98327486  0.65994009  0.18078636     0.07100
H3706       H  0.98587627  0.66276991  0.14681370     0.07100
H3707       H  0.86529195  0.51152557  0.17606143     0.07200
H3708       H  0.86639841  0.51494858  0.14206468     0.07200
H3709       H  0.92551909  0.57878323  0.22565706     0.03700
H3710       H  0.92769832  0.59443907  0.09669074     0.03700
O3711       O  0.58759879  0.96151789  0.30433401    -0.88600
C3712       C  0.56399059  0.87017383  0.30663773     0.87400
Mg3713     Mg  0.63117172  0.99842542  0.31373067     1.58100
O3714       O  0.52896115  0.89165799  0.34292256    -0.88400
O3715       O  0.53875344  0.94258650  0.31197144    -0.75700
C3716       C  0.65482042  0.95440912  0.39679111     0.92400
O3717       O  0.63324441  0.93389739  0.29850596    -0.75500
O3718       O  0.66891792  0.96903360  0.38190096    -0.83000
Mg3719     Mg  0.58897251  0.92821350  0.28547778     1.58000
C3720       C  0.53116623  0.86059270  0.39836630     0.92400
O3721       O  0.54708629  0.91944917  0.26787293    -0.81300
H3722       H  0.50052155  0.90656361  0.35154741    -0.06600
C3723       C  0.60707682  0.89058454  0.35701276     0.87300
O3724       O  0.61043297  0.99838423  0.34291189    -0.75800
O3725       O  0.55952881  0.89211250  0.30536521    -0.88600
O3726       O  0.51994352  0.84944352  0.38219140    -0.81400
C3727       C  0.97700958  0.81616827  0.32658746     0.92500
C3728       C  0.51832930  0.89926917  0.26844540     0.92300
Mg3729     Mg  0.58359878  0.92661416  0.37982292     1.58000
O3730       O  0.62588361  0.93483856  0.39697207    -0.81300
O3731       O  0.53880622  0.92116363  0.36755292    -0.75500
O3732       O  0.98527726  0.83795911  0.31477443    -0.81400
O3733       O  0.61964890  0.96665511  0.26485048    -0.83100
O3734       O  0.68606300  0.51983638  0.35078024    -0.81400
C3735       C  0.52160441  0.90607429  0.35391178     0.86800
O3736       O  0.61220780  0.96333562  0.36014443    -0.88500
O3737       O  0.58440269  0.89358050  0.36036283    -0.88700
O3738       O  0.63352275  0.91353078  0.35289532    -0.75700
Mg3739     Mg  0.51658951  0.89014421  0.31386786     1.58000
O3740       O  0.99296182  0.81888664  0.34113264    -0.83100
H3741       H  0.56843145  0.98797415  0.30675166    -0.06800
O3742       O  0.64305485  0.96454194  0.32258807    -0.88400
H3743       H  0.67147632  0.94927003  0.31462664    -0.06600
H3744       H  0.59657635  0.99021692  0.37036575    -0.06800
C3745       C  0.65043372  0.94969382  0.31197096     0.86700
C3746       C  0.56516403  0.96500682  0.30733911     0.87300
C3747       C  0.60629568  0.98428694  0.35845014     0.87400
H3748       H  0.60411739  0.86771975  0.35705242    -0.06800
O3749       O  0.55936718  0.85563492  0.32202685    -0.75800
Mg3750     Mg  0.65552101  0.96628146  0.35158046     1.58000
H3751       H  0.57277489  0.86369928  0.29449510    -0.06800
C3752       C  0.64279669  0.99382357  0.26682744     0.92400
O3753       O  0.67746039  0.53769620  0.32416838    -0.83000
C3754       C  0.69334890  0.54137735  0.33886614     0.92400
O3755       O  0.00431148  0.88708307  0.28369147    -0.83000
Mg3756     Mg  0.53981757  0.85675105  0.35137193     1.58200
O3757       O  0.65191932  0.00557984  0.28318839    -0.81400
O3758       O  0.55445721  0.88765775  0.40008558    -0.83100
O3759       O  0.85564264  0.92370900  0.30227013    -0.88600
C3760       C  0.79334203  0.95206439  0.31489547     0.87400
Mg3761     Mg  0.84963539  0.87959268  0.30983655     1.58100
O3762       O  0.86246615  0.98908538  0.34114762    -0.88400
O3763       O  0.88934097  0.97306917  0.30437088    -0.75700
C3764       C  0.81393101  0.86796582  0.39987352     0.92400
O3765       O  0.78117907  0.88155012  0.30631363    -0.75500
O3766       O  0.80818386  0.85130845  0.38527761    -0.83000
Mg3767     Mg  0.81686242  0.92296959  0.28893254     1.58000
C3768       C  0.85181517  0.99079153  0.40059843     0.92400
O3769       O  0.84705518  0.96047552  0.26809794    -0.81300
H3770       H  0.90873107  0.01392308  0.34215542    -0.06600
C3771       C  0.78819563  0.91369459  0.36598293     0.87300
O3772       O  0.88161277  0.90058962  0.33507119    -0.75800
O3773       O  0.81837537  0.95525004  0.30951210    -0.88600
O3774       O  0.84537299  0.00129416  0.38598521    -0.81400
C3775       C  0.83300148  0.53916988  0.33148603     0.92500
C3776       C  0.85681424  0.98898493  0.26604100     0.92300
Mg3777     Mg  0.85444606  0.93558825  0.37760602     1.58000
O3778       O  0.82551942  0.89702049  0.39894451    -0.81300
O3779       O  0.88928934  0.97703782  0.35980950    -0.75500
O3780       O  0.84163887  0.52932549  0.31739400    -0.81400
O3781       O  0.81720471  0.89130580  0.26696739    -0.83100
O3782       O  0.82695109  0.82867362  0.34870354    -0.81400
C3783       C  0.88756584  0.99448189  0.34759928     0.86800
O3784       O  0.85208164  0.90335170  0.35691973    -0.88500
O3785       O  0.81519958  0.93541555  0.36496857    -0.88700
O3786       O  0.78125674  0.88624318  0.36210382    -0.75700
Mg3787     Mg  0.86222684  0.99783947  0.31144462     1.58000
O3788       O  0.82700450  0.02589399  0.34761309    -0.83100
H3789       H  0.90098500  0.94090079  0.29744599    -0.06800
O3790       O  0.80823991  0.87059283  0.32542301    -0.88400
H3791       H  0.76203917  0.84488152  0.32413982    -0.06600
H3792       H  0.89606764  0.91520543  0.36170137    -0.06800
C3793       C  0.78307903  0.86452343  0.31873736     0.86700
C3794       C  0.88259156  0.94549831  0.30104353     0.87300
C3795       C  0.87718345  0.90640689  0.35183774     0.87400
H3796       H  0.76987924  0.91830816  0.36977291    -0.06800
O3797       O  0.78944283  0.95839179  0.33167370    -0.75800
Mg3798     Mg  0.80784178  0.86115980  0.35464741     1.58000
H3799       H  0.77412393  0.94293102  0.30526793    -0.06800
C3800       C  0.82026609  0.86780990  0.26696162     0.92400
O3801       O  0.84377237  0.83359240  0.31887911    -0.83000
C3802       C  0.83624777  0.81945135  0.33465824     0.92400
O3803       O  0.86095657  0.50609457  0.28033240    -0.83000
Mg3804     Mg  0.82110937  0.97964680  0.35718564     1.58200
O3805       O  0.82373503  0.85681198  0.28231814    -0.81400
O3806       O  0.85592807  0.96789005  0.39957391    -0.83100
C3807       C  0.93635661  0.85876285  0.20737729    -0.11200
C3808       C  0.91095993  0.85764643  0.21661951    -0.05000
C3809       C  0.88291504  0.84748638  0.20755446    -0.11100
C3810       C  0.88078743  0.84027120  0.18819365     0.09800
C3811       C  0.90606020  0.84002463  0.17880133    -0.02900
C3812       C  0.93374557  0.84850071  0.18856961     0.09600
C3813       C  0.95791630  0.84674520  0.17926381    -0.12900
C3814       C  0.95484956  0.83666738  0.16056431    -0.12900
C3815       C  0.92794939  0.82903165  0.15045804     0.09600
C3816       C  0.90358369  0.83130322  0.15961625    -0.02900
C3817       C  0.85423876  0.83338785  0.17800838    -0.13100
C3818       C  0.85281944  0.82723590  0.15883390    -0.13100
C3819       C  0.87690631  0.82544106  0.14951254     0.09800
C3820       C  0.87537564  0.81845578  0.13021911    -0.11100
C3821       C  0.89819722  0.81413622  0.12172037    -0.05000
C3822       C  0.92434110  0.81913823  0.13142557    -0.11200
H3823       H  0.97924855  0.85293505  0.18646293     0.07100
H3824       H  0.97380863  0.83529380  0.15396317     0.07100
H3825       H  0.83462156  0.83343375  0.18465369     0.07200
H3826       H  0.83236103  0.82343707  0.15151148     0.07200
H3827       H  0.91294161  0.86442932  0.23133687     0.03700
H3828       H  0.89596325  0.80757181  0.10694990     0.03700
O3829       O  0.76395612  0.50724858  0.96423445    -0.88600
C3830       C  0.68135130  0.95054436  0.99061277     0.87400
Mg3831     Mg  0.80571602  0.50552865  0.96859501     1.58100
O3832       O  0.71957455  0.52602458  0.00838708    -0.88400
O3833       O  0.74620487  0.53913721  0.96605681    -0.75700
C3834       C  0.81760870  0.50552988  0.06181103     0.92400
O3835       O  0.73921977  0.93905841  0.97642983    -0.75500
O3836       O  0.82486463  0.49604583  0.04695976    -0.83000
Mg3837     Mg  0.72375680  0.96592787  0.95763336     1.58000
C3838       C  0.72727242  0.53846251  0.06749258     0.92400
O3839       O  0.70456087  0.98661865  0.93649641    -0.81300
H3840       H  0.73747458  0.57129064  0.00428345    -0.06600
C3841       C  0.73432990  0.96512375  0.03714040     0.87300
O3842       O  0.82359628  0.54561195  0.98989741    -0.75800
O3843       O  0.70012116  0.97327564  0.98133748    -0.88600
O3844       O  0.70729319  0.52697820  0.05447275    -0.81400
C3845       C  0.63754193  0.99508453  0.01052622     0.92500
C3846       C  0.68253859  0.99253494  0.93675972     0.92300
Mg3847     Mg  0.77775832  0.53335728  0.04043495     1.58000
O3848       O  0.79693186  0.51317015  0.06151384    -0.81300
O3849       O  0.76251213  0.56044509  0.02168062    -0.75500
O3850       O  0.64900172  0.99532439  0.99422484    -0.81400
O3851       O  0.74825884  0.95765664  0.93247372    -0.83100
O3852       O  0.85130989  0.50403752  0.00462774    -0.81400
C3853       C  0.73941586  0.55323579  0.01122357     0.86800
O3854       O  0.80077649  0.52550169  0.01687237    -0.88500
O3855       O  0.73691193  0.99042350  0.03368517    -0.88700
O3856       O  0.75497531  0.95879086  0.03198296    -0.75700
Mg3857     Mg  0.69832005  0.51385547  0.98105555     1.58000
O3858       O  0.65137273  0.99597521  0.02565355    -0.83100
H3859       H  0.78710516  0.54977639  0.95329114    -0.06800
O3860       O  0.78207904  0.97351539  0.98983706    -0.88400
H3861       H  0.76435915  0.92823853  0.99375160    -0.06600
H3862       H  0.83171081  0.57046591  0.01399272    -0.06800
C3863       C  0.76234356  0.94629998  0.98687637     0.86700
C3864       C  0.76660782  0.53256144  0.96073656     0.87300
C3865       C  0.81928696  0.54806064  0.00736860     0.87400
H3866       H  0.71373208  0.94774453  0.04442505    -0.06800
O3867       O  0.67680733  0.95263965  0.00809264    -0.75800
Mg3868     Mg  0.80303770  0.98496207  0.01727826     1.58000
H3869       H  0.66884578  0.92832703  0.98377501    -0.06800
C3870       C  0.77530252  0.96115074  0.93087115     0.92400
O3871       O  0.84895902  0.50202018  0.97318990    -0.83000
C3872       C  0.86275891  0.50373854  0.98845783     0.92400
O3873       O  0.67539918  0.00158293  0.95182080    -0.83000
Mg3874     Mg  0.69493926  0.99227475  0.02974422     1.58200
O3875       O  0.79528388  0.97378986  0.94379661    -0.81400
O3876       O  0.75399964  0.54141406  0.06563815    -0.83100
O3877       O  0.74931981  0.72698843  0.97104387    -0.88600
C3878       C  0.77435062  0.81636306  0.98250096     0.87400
Mg3879     Mg  0.70378534  0.68786719  0.97401674     1.58100
O3880       O  0.80567403  0.78383695  0.01299716    -0.88400
O3881       O  0.79864546  0.74442115  0.97612168    -0.75700
C3882       C  0.67837941  0.69917555  0.06254325     0.92400
O3883       O  0.70652658  0.75751244  0.97060742    -0.75500
O3884       O  0.66159318  0.68373419  0.04875729    -0.83000
Mg3885     Mg  0.75220625  0.76529210  0.95668552     1.58000
C3886       C  0.79395586  0.79150389  0.07002051     0.92400
O3887       O  0.79530196  0.77123364  0.94151918    -0.81300
H3888       H  0.83176325  0.76475152  0.01757642    -0.06600
C3889       C  0.72208356  0.77583718  0.03035681     0.87300
O3890       O  0.71909408  0.67375898  0.00084001    -0.75800
O3891       O  0.77819473  0.79439389  0.97938360    -0.88600
O3892       O  0.80482669  0.80838034  0.05543886    -0.81400
C3893       C  0.85606702  0.86414825  0.00768657     0.92500
C3894       C  0.81987356  0.79704244  0.93926817     0.92300
Mg3895     Mg  0.74430976  0.73522786  0.04474076     1.58000
O3896       O  0.70016590  0.72651519  0.05962148    -0.81300
O3897       O  0.79069584  0.74430287  0.03194297    -0.75500
O3898       O  0.84947824  0.84743764  0.99291583    -0.81400
O3899       O  0.72566396  0.73726476  0.93195046    -0.83100
O3900       O  0.64939987  0.65059687  0.00860583    -0.81400
C3901       C  0.81052874  0.76472931  0.02080845     0.86800
O3902       O  0.71900739  0.70563115  0.02163965    -0.88500
O3903       O  0.74526497  0.77293981  0.02986040    -0.88700
O3904       O  0.69513258  0.75326614  0.02676750    -0.75700
Mg3905     Mg  0.82102215  0.79607753  0.98435601     1.58000
O3906       O  0.83881865  0.85557017  0.02239872    -0.83100
H3907       H  0.76825385  0.70027751  0.96834003    -0.06800
O3908       O  0.68964088  0.71679106  0.98899601    -0.88400
H3909       H  0.66623009  0.73909220  0.98580402    -0.06600
H3910       H  0.73021631  0.67384109  0.02832137    -0.06800
C3911       C  0.68641532  0.73753046  0.98193924     0.86700
C3912       C  0.77168956  0.72282818  0.97164715     0.87300
C3913       C  0.72305870  0.68402482  0.01755746     0.87400
H3914       H  0.72470362  0.79793022  0.03407997    -0.06800
O3915       O  0.77649752  0.82666411  0.99903416    -0.75800
Mg3916     Mg  0.67489267  0.70193926  0.01779334     1.58000
H3917       H  0.76832142  0.82642728  0.97106515    -0.06800
C3918       C  0.69949249  0.71284086  0.93119468     0.92400
O3919       O  0.65610351  0.64668688  0.97770134    -0.83000
C3920       C  0.64120666  0.63584505  0.99304339     0.92400
O3921       O  0.83536059  0.81168149  0.95362684    -0.83000
Mg3922     Mg  0.79050342  0.81348502  0.02637529     1.58200
O3923       O  0.68734636  0.69553643  0.94555463    -0.81400
O3924       O  0.77018733  0.76481399  0.06928655    -0.83100
O3925       O  0.51890333  0.77594711  0.03261317    -0.88600
C3926       C  0.96083285  0.68527508  0.01760965     0.87400
Mg3927     Mg  0.50914761  0.81196991  0.02594669     1.58100
O3928       O  0.53202681  0.72262830  0.99186446    -0.88400
O3929       O  0.55436177  0.76256053  0.02966821    -0.75700
C3930       C  0.48132339  0.79422063  0.93510680     0.92400
O3931       O  0.94420053  0.73943686  0.02930825    -0.75500
O3932       O  0.47322128  0.80273352  0.94997551    -0.83000
Mg3933     Mg  0.98180842  0.73569346  0.04549954     1.58000
C3934       C  0.52752601  0.71452099  0.93257457     0.92400
O3935       O  0.01635336  0.73130562  0.06418695    -0.81300
H3936       H  0.57835603  0.74758145  0.99094857    -0.06600
C3937       C  0.95532133  0.71878587  0.96755051     0.87300
O3938       O  0.54208254  0.82634494  0.00025259    -0.75800
O3939       O  0.98508215  0.70766105  0.02322444    -0.88600
O3940       O  0.52033664  0.69714671  0.94715074    -0.81400
C3941       C  0.00422816  0.64162718  0.99963757     0.92500
C3942       C  0.01781783  0.70693572  0.06592543     0.92300
Mg3943     Mg  0.52094496  0.76715930  0.95618323     1.58000
O3944       O  0.49000259  0.77441269  0.93580265    -0.81300
O3945       O  0.55724629  0.76303019  0.97350732    -0.75500
O3946       O  0.00996875  0.65845483  0.01424064    -0.81400
O3947       O  0.97808555  0.76445082  0.06890328    -0.83100
O3948       O  0.48821701  0.84043456  0.98714935    -0.81400
C3949       C  0.55668812  0.74416258  0.98558965     0.86800
O3950       O  0.51546732  0.79398797  0.97799541    -0.88500
O3951       O  0.98285665  0.72579945  0.96823779    -0.88700
O3952       O  0.94651872  0.73775692  0.97202475    -0.75700
Mg3953     Mg  0.52985074  0.71078987  0.02127324     1.58000
O3954       O  0.00044288  0.65016610  0.98345788    -0.83100
H3955       H  0.56385973  0.80556307  0.03721813    -0.06800
O3956       O  0.96950110  0.77822200  0.00979914    -0.88400
H3957       H  0.92318072  0.75511266  0.01192198    -0.06600
H3958       H  0.55878698  0.82878891  0.97365374    -0.06800
C3959       C  0.94481473  0.75784817  0.01684365     0.86700
C3960       C  0.54628229  0.78239473  0.03340799     0.87300
C3961       C  0.53942033  0.81692985  0.98338397     0.87400
H3962       H  0.93813205  0.69559464  0.96351037    -0.06800
O3963       O  0.95845227  0.67565374  0.00077820    -0.75800
Mg3964     Mg  0.97019004  0.78904730  0.98035406     1.58000
H3965       H  0.94108805  0.67394244  0.02712588    -0.06800
C3966       C  0.97701077  0.78920590  0.06899048     0.92400
O3967       O  0.49951670  0.85019500  0.01767000    -0.83000
C3968       C  0.49469391  0.85784732  0.00149600     0.92400
O3969       O  0.02338340  0.69512384  0.05163194    -0.83000
Mg3970     Mg  0.99190650  0.68933620  0.97520328     1.58200
O3971       O  0.98220198  0.80516821  0.05397269    -0.81400
O3972       O  0.52680155  0.73941900  0.93304549    -0.83100
O3973       O  0.68950611  0.56904882  0.63386382    -0.88600
C3974       C  0.62615410  0.59586318  0.64732129     0.87400
Mg3975     Mg  0.68147926  0.52345227  0.64030233     1.58100
O3976       O  0.69404039  0.62935512  0.67495131    -0.88400
O3977       O  0.72296046  0.61808322  0.63754333    -0.75700
C3978       C  0.63955729  0.50568787  0.73118331     0.92400
O3979       O  0.61562946  0.52586479  0.63520878    -0.75500
O3980       O  0.63354356  0.98821264  0.71645175    -0.83000
Mg3981     Mg  0.65239640  0.56963777  0.61945636     1.58000
C3982       C  0.67791764  0.62946354  0.73366796     0.92400
O3983       O  0.68349521  0.61090607  0.60063664    -0.81300
H3984       H  0.74005871  0.65531396  0.67761185    -0.06600
C3985       C  0.61837592  0.55385932  0.69735645     0.87300
O3986       O  0.71217706  0.54241567  0.66663535    -0.75800
O3987       O  0.65137047  0.59969909  0.64162729    -0.88600
O3988       O  0.67975317  0.64204589  0.71783642    -0.81400
C3989       C  0.66904725  0.68365303  0.66933033     0.92500
C3990       C  0.69382591  0.63980324  0.60031803     0.92300
Mg3991     Mg  0.68274797  0.57497278  0.71116018     1.58000
O3992       O  0.65134419  0.53470667  0.73002573    -0.81300
O3993       O  0.71959812  0.61823642  0.69517407    -0.75500
O3994       O  0.67617939  0.67458031  0.65416199    -0.81400
O3995       O  0.65736053  0.54051438  0.59596641    -0.83100
O3996       O  0.65637513  0.96914303  0.67751107    -0.81400
C3997       C  0.71869663  0.63536551  0.68237384     0.86800
O3998       O  0.68300224  0.54429958  0.68933069    -0.88500
O3999       O  0.64548917  0.57536942  0.69681079    -0.88700
O4000       O  0.61141429  0.52652381  0.69313570    -0.75700
Mg4001     Mg  0.69546493  0.64208461  0.64599850     1.58000
O4002       O  0.66152227  0.66804382  0.68444373    -0.83100
H4003       H  0.73500372  0.58663906  0.62940298    -0.06800
O4004       O  0.64056793  0.51475362  0.65592125    -0.88400
H4005       H  0.59467475  0.48869533  0.65269308    -0.06600
H4006       H  0.72728115  0.55636891  0.69330162    -0.06800
C4007       C  0.61614685  0.50873582  0.64816855     0.86700
C4008       C  0.71647005  0.59086474  0.63330720     0.87300
C4009       C  0.70812916  0.54787896  0.68365282     0.87400
H4010       H  0.60008581  0.55852222  0.70112858    -0.06800
O4011       O  0.62211232  0.60134678  0.66433745    -0.75800
Mg4012     Mg  0.63855659  0.50212369  0.68521256     1.58000
H4013       H  0.60696584  0.58720774  0.63769152    -0.06800
C4014       C  0.65770225  0.51537676  0.59663963     0.92400
O4015       O  0.67242313  0.47527923  0.64710014    -0.83000
C4016       C  0.66430680  0.96006527  0.66266221     0.92400
O4017       O  0.69666296  0.65518716  0.61524973    -0.83000
Mg4018     Mg  0.65309288  0.62047825  0.69058171     1.58200
O4019       O  0.65526387  0.50240538  0.61249117    -0.81400
O4020       O  0.67871140  0.60457334  0.73454574    -0.83100
C4021       C  0.62073991  0.67826728  0.86836720    -0.11200
C4022       C  0.59645565  0.67856883  0.87798144    -0.05000
C4023       C  0.57173921  0.67760013  0.86860662    -0.11100
C4024       C  0.57045276  0.67483382  0.84865748     0.09800
C4025       C  0.59457678  0.67317297  0.83866990    -0.02900
C4026       C  0.62002701  0.67524040  0.84859706     0.09600
C4027       C  0.64386790  0.67403812  0.83859533    -0.12900
C4028       C  0.64249935  0.67012700  0.81908473    -0.12900
C4029       C  0.61750114  0.66780667  0.80889310     0.09600
C4030       C  0.59354667  0.66989831  0.81873466    -0.02900
C4031       C  0.54592789  0.67346325  0.83846098    -0.13100
C4032       C  0.54487036  0.67018270  0.81882972    -0.13100
C4033       C  0.56833024  0.66819049  0.80874050     0.09800
C4034       C  0.56727792  0.66436080  0.78890632    -0.11100
C4035       C  0.59104929  0.66238405  0.77944940    -0.05000
C4036       C  0.61573845  0.66336026  0.78910392    -0.11200
H4037       H  0.66351583  0.67559019  0.84587636     0.07100
H4038       H  0.66125785  0.66900156  0.81200723     0.07100
H4039       H  0.52728925  0.67467074  0.84565413     0.07200
H4040       H  0.52545533  0.66916510  0.81157757     0.07200
H4041       H  0.59789249  0.68169718  0.89319229     0.03700
H4042       H  0.58945685  0.65841523  0.76433953     0.03700
C4043       C  0.59240688  0.93309594  0.87886051    -0.11200
C4044       C  0.56809425  0.90795226  0.88839995    -0.05000
C4045       C  0.54227591  0.88501578  0.87893081    -0.11100
C4046       C  0.54051629  0.88706707  0.85919521     0.09800
C4047       C  0.56485157  0.91249930  0.84924970    -0.02900
C4048       C  0.59089557  0.93568374  0.85905037     0.09600
C4049       C  0.61453764  0.96065924  0.84878876    -0.12900
C4050       C  0.61278281  0.96275125  0.82922097    -0.12900
C4051       C  0.58715995  0.94013578  0.81932097     0.09600
C4052       C  0.56303541  0.91470410  0.82943468    -0.02900
C4053       C  0.51486367  0.86452701  0.84920030    -0.13100
C4054       C  0.51337596  0.86640644  0.82975212    -0.13100
C4055       C  0.53707992  0.89130443  0.81969929     0.09800
C4056       C  0.53535936  0.89377708  0.80009456    -0.11100
C4057       C  0.55848877  0.91911126  0.79048400    -0.05000
C4058       C  0.58441961  0.94204617  0.79957863    -0.11200
H4059       H  0.63456468  0.97882049  0.85585465     0.07100
H4060       H  0.63144550  0.98235240  0.82188224     0.07100
H4061       H  0.49555291  0.84524558  0.85631834     0.07200
H4062       H  0.49321183  0.84845775  0.82265252     0.07200
H4063       H  0.56961498  0.90582658  0.90351691     0.03700
H4064       H  0.55665420  0.92056483  0.77530441     0.03700
O4065       O  0.89979393  0.56908428  0.70272762    -0.88600
C4066       C  0.98401483  0.59306549  0.67825680     0.87400
Mg4067     Mg  0.85827219  0.52523156  0.69831193     1.58100
O4068       O  0.94786390  0.63202344  0.65971863    -0.88400
O4069       O  0.91818883  0.61892375  0.70128241    -0.75700
C4070       C  0.85353038  0.51247884  0.60510341     0.92400
O4071       O  0.92675111  0.52465489  0.69195963    -0.75500
O4072       O  0.84549760  0.49421278  0.61925445    -0.83000
Mg4073     Mg  0.94028779  0.56723840  0.71050952     1.58000
C4074       C  0.94151961  0.63614426  0.60145552     0.92400
O4075       O  0.95608495  0.60761528  0.73137802    -0.81300
H4076       H  0.92939214  0.65885488  0.66376784    -0.06600
C4077       C  0.93405318  0.55544963  0.63066040     0.87300
O4078       O  0.84076307  0.54603573  0.67644137    -0.75800
O4079       O  0.96532035  0.59781064  0.68705688    -0.88600
O4080       O  0.96212131  0.64306831  0.61393107    -0.81400
C4081       C  0.52958068  0.67956284  0.65751472     0.92500
C4082       C  0.97931209  0.63500489  0.73148379     0.92300
Mg4083     Mg  0.88982165  0.57998843  0.62792136     1.58000
O4084       O  0.87158004  0.54128408  0.60696202    -0.81300
O4085       O  0.90420445  0.62196511  0.64689059    -0.75500
O4086       O  0.51573057  0.67081075  0.67352940    -0.81400
O4087       O  0.91454386  0.53461257  0.73537110    -0.83100
O4088       O  0.81618287  0.97351123  0.66247038    -0.81400
C4089       C  0.92766814  0.63877908  0.65689683     0.86800
O4090       O  0.86542395  0.54788512  0.65043440    -0.88500
O4091       O  0.93063960  0.57759620  0.63441504    -0.88700
O4092       O  0.91405295  0.52817467  0.63559258    -0.75700
Mg4093     Mg  0.96703310  0.64148789  0.68732159     1.58000
O4094       O  0.51733817  0.66538171  0.64232089    -0.83100
H4095       H  0.87614033  0.58857262  0.71280570    -0.06800
O4096       O  0.88434086  0.51492972  0.67745212    -0.88400
H4097       H  0.90306835  0.48809811  0.67452489    -0.06600
H4098       H  0.83328522  0.56042217  0.65141492    -0.06800
C4099       C  0.90428690  0.50813601  0.68112653     0.86700
C4100       C  0.89709351  0.59182719  0.70598403     0.87300
C4101       C  0.84577499  0.55149900  0.65893207     0.87400
H4102       H  0.95503890  0.55952153  0.62347091    -0.06800
O4103       O  0.98899549  0.59871521  0.66072380    -0.75800
Mg4104     Mg  0.86562872  0.50467275  0.64943121     1.58000
H4105       H  0.99586349  0.58322897  0.68554994    -0.06800
C4106       C  0.88769832  0.51057832  0.73643204     0.92400
O4107       O  0.81392640  0.97929951  0.69364375    -0.83000
C4108       C  0.80239563  0.96454567  0.67846906     0.92400
O4109       O  0.98877810  0.65098972  0.71641592    -0.83000
Mg4110     Mg  0.97260102  0.62055909  0.63861492     1.58200
O4111       O  0.86847139  0.50280432  0.72305506    -0.81400
O4112       O  0.91448015  0.61277316  0.60336136    -0.83100
O4113       O  0.90832751  0.83808011  0.69852261    -0.88600
C4114       C  0.93416023  0.77316720  0.68656936     0.87400
Mg4115     Mg  0.86577048  0.83552673  0.69048240     1.58100
O4116       O  0.97526202  0.84215053  0.66036628    -0.88400
O4117       O  0.95852767  0.86960340  0.69630092    -0.75700
C4118       C  0.85977776  0.80219211  0.60044049     0.92400
O4119       O  0.86280580  0.76426580  0.69379757    -0.75500
O4120       O  0.84210984  0.79802592  0.61452922    -0.83000
Mg4121     Mg  0.90437103  0.79734678  0.71152643     1.58000
C4122       C  0.98078260  0.83245569  0.60090330     0.92400
O4123       O  0.94143066  0.82498627  0.73252813    -0.81300
H4124       H  0.00372601  0.88781824  0.65914291    -0.06600
C4125       C  0.89902145  0.77119091  0.63590490     0.87300
O4126       O  0.88992338  0.86719394  0.66507166    -0.75800
O4127       O  0.93739667  0.79820230  0.69145656    -0.88600
O4128       O  0.98972212  0.82519952  0.61586730    -0.81400
C4129       C  0.52349808  0.81275627  0.67037090     0.92500
C4130       C  0.97014198  0.83595963  0.73506586     0.92300
Mg4131     Mg  0.92600748  0.83805106  0.62338244     1.58000
O4132       O  0.88826011  0.81097077  0.60220160    -0.81300
O4133       O  0.96780554  0.87131908  0.64099957    -0.75500
O4134       O  0.51191475  0.81886289  0.68469914    -0.81400
O4135       O  0.87221232  0.79810961  0.73319100    -0.83100
O4136       O  0.81904492  0.81878127  0.65038167    -0.81400
C4137       C  0.98344412  0.86778558  0.65363064     0.86800
O4138       O  0.89356287  0.83763401  0.64391487    -0.88500
O4139       O  0.92228966  0.79729156  0.63632215    -0.88700
O4140       O  0.87192313  0.76659267  0.63934886    -0.75700
Mg4141     Mg  0.98159479  0.84075323  0.69015026     1.58000
O4142       O  0.51170554  0.80818129  0.65397567    -0.83100
H4143       H  0.92776092  0.88344229  0.70286182    -0.06800
O4144       O  0.85485053  0.79395798  0.67509364    -0.88400
H4145       H  0.82647531  0.74825198  0.67601365    -0.06600
H4146       H  0.90817319  0.88206398  0.63886189    -0.06800
C4147       C  0.84682523  0.76816738  0.68156999     0.86700
C4148       C  0.93119853  0.86431763  0.69957998     0.87300
C4149       C  0.89749527  0.86297189  0.64868802     0.87400
H4150       H  0.90187057  0.75161819  0.63292673    -0.06800
O4151       O  0.94207925  0.76940213  0.67015907    -0.75800
Mg4152     Mg  0.84891659  0.79579153  0.64553922     1.58000
H4153       H  0.92385150  0.75394940  0.69632025    -0.06800
C4154       C  0.85070204  0.80449642  0.73368008     0.92400
O4155       O  0.82097270  0.83249561  0.68060543    -0.83000
C4156       C  0.80883559  0.82743246  0.66430370     0.92400
O4157       O  0.48996783  0.84037936  0.72092303    -0.83000
Mg4158     Mg  0.96571144  0.80134215  0.64466435     1.58200
O4159       O  0.84160140  0.81161706  0.71877976    -0.81400
O4160       O  0.95843329  0.83767377  0.60140880    -0.83100
C4161       C  0.81562232  0.90839504  0.87322454    -0.11200
C4162       C  0.81820920  0.88623207  0.88353351    -0.05000
C4163       C  0.82545188  0.86558357  0.87488378    -0.11100
C4164       C  0.82849969  0.86575931  0.85504490     0.09800
C4165       C  0.82847268  0.88971141  0.84451127    -0.02900
C4166       C  0.82333449  0.91199403  0.85372029     0.09600
C4167       C  0.82604227  0.93689655  0.84317511    -0.12900
C4168       C  0.83458339  0.94030688  0.82403558    -0.12900
C4169       C  0.83797230  0.91751071  0.81450012     0.09600
C4170       C  0.83351658  0.89129315  0.82471426    -0.02900
C4171       C  0.83127524  0.84267820  0.84546802    -0.13100
C4172       C  0.83256128  0.84232886  0.82581975    -0.13100
C4173       C  0.83442113  0.86676516  0.81520660     0.09800
C4174       C  0.83753600  0.86773225  0.79533388    -0.11100
C4175       C  0.84396580  0.89452318  0.78570696    -0.05000
C4176       C  0.84585434  0.91993654  0.79505421    -0.11200
H4177       H  0.82259685  0.95441852  0.84982161     0.07100
H4178       H  0.83753143  0.96040458  0.81659933     0.07100
H4179       H  0.83143811  0.82413727  0.85306993     0.07200
H4180       H  0.83318531  0.82328685  0.81903622     0.07200
H4181       H  0.81377527  0.88454869  0.89864505     0.03700
H4182       H  0.84861119  0.89601523  0.77062353     0.03700
C4183       C  0.49788923  0.71955477  0.45912548    -0.11200
C4184       C  0.50157252  0.74464915  0.44850275    -0.05000
C4185       C  0.50206364  0.77018177  0.45691823    -0.11100
C4186       C  0.49948212  0.77109435  0.47686031     0.09800
C4187       C  0.49426566  0.74520475  0.48778429    -0.02900
C4188       C  0.49237358  0.71889694  0.47881980     0.09600
C4189       C  0.48532402  0.69285961  0.48978563    -0.12900
C4190       C  0.98094895  0.69295091  0.50972241    -0.12900
C4191       C  0.98429998  0.71931032  0.51891523     0.09600
C4192       C  0.99115093  0.74579904  0.50807717    -0.02900
C4193       C  0.50225678  0.79717920  0.48618995    -0.13100
C4194       C  0.00139870  0.79855224  0.50607726    -0.13100
C4195       C  0.99576505  0.77314240  0.51721886     0.09800
C4196       C  0.99450586  0.77398769  0.53726272    -0.11100
C4197       C  0.98708625  0.74738806  0.54747945    -0.05000
C4198       C  0.98139324  0.72015651  0.53873100    -0.11200
H4199       H  0.48318407  0.67230528  0.48330519     0.07100
H4200       H  0.97589844  0.67252972  0.51765302     0.07100
H4201       H  0.50586339  0.81716898  0.47834004     0.07200
H4202       H  0.00513424  0.81971925  0.51254733     0.07200
H4203       H  0.50531140  0.74483604  0.43337175     0.03700
H4204       H  0.98483191  0.74759120  0.56273668     0.03700
C4205       C  0.77087705  0.78482567  0.46033675    -0.11200
C4206       C  0.74618800  0.76163118  0.45055031    -0.05000
C4207       C  0.72473446  0.73398487  0.45916858    -0.11100
C4208       C  0.72760731  0.72919257  0.47844473     0.09800
C4209       C  0.75330598  0.75242558  0.48847626    -0.02900
C4210       C  0.77514742  0.78037258  0.47935936     0.09600
C4211       C  0.80078382  0.80280011  0.48933674    -0.12900
C4212       C  0.80516361  0.79779522  0.50802221    -0.12900
C4213       C  0.78353681  0.77062257  0.51739161     0.09600
C4214       C  0.75720477  0.74778020  0.50763402    -0.02900
C4215       C  0.70591764  0.70205147  0.48787671    -0.13100
C4216       C  0.70940706  0.69774765  0.50694729    -0.13100
C4217       C  0.73491531  0.72027346  0.51700373     0.09800
C4218       C  0.73905452  0.71639691  0.53623249    -0.11100
C4219       C  0.76499612  0.73898383  0.54550489    -0.05000
C4220       C  0.78725289  0.76560380  0.53639435    -0.11200
H4221       H  0.81783712  0.82417876  0.48265519     0.07100
H4222       H  0.82537530  0.81554332  0.51519437     0.07100
H4223       H  0.68612376  0.68403493  0.48054382     0.07200
H4224       H  0.69215039  0.67659907  0.51375826     0.07200
H4225       H  0.74331854  0.76541302  0.43581982     0.03700
H4226       H  0.76818708  0.73555194  0.56024744     0.03700
C4227       C  0.73481374  0.98788872  0.46050914    -0.11200
C4228       C  0.76271518  0.99322362  0.45239529    -0.05000
C4229       C  0.78789588  0.99815519  0.46317544    -0.11100
C4230       C  0.78462508  0.99620773  0.48310481     0.09800
C4231       C  0.75636434  0.99090274  0.49174941    -0.02900
C4232       C  0.73151845  0.98723762  0.48040482     0.09600
C4233       C  0.70432280  0.98321808  0.48923846    -0.12900
C4234       C  0.70130032  0.48287692  0.50970129    -0.12900
C4235       C  0.72551202  0.48613844  0.52118269     0.09600
C4236       C  0.75291724  0.48953552  0.51235186    -0.02900
C4237       C  0.80846274  0.99888379  0.49457522    -0.13100
C4238       C  0.80407118  0.49483083  0.51434724    -0.13100
C4239       C  0.77702602  0.49087122  0.52344938     0.09800
C4240       C  0.77339018  0.48822926  0.54333786    -0.11100
C4241       C  0.74710464  0.48671372  0.55178248    -0.05000
C4242       C  0.72306585  0.48573978  0.54122902    -0.11200
H4243       H  0.68511420  0.98065451  0.48097310     0.07100
H4244       H  0.67974446  0.47924893  0.51584174     0.07100
H4245       H  0.83034239  0.00323819  0.48851597     0.07200
H4246       H  0.82258604  0.49501541  0.52215032     0.07200
H4247       H  0.76471887  0.99301986  0.43712487     0.03700
H4248       H  0.74579493  0.48717505  0.56705392     0.03700
O4249       O  0.51063346  0.95990150  0.01593998    -0.88600
C4250       C  0.55676827  0.52085605  0.97276121     0.87400
Mg4251     Mg  0.96143895  0.92642603  0.01415056     1.58100
O4252       O  0.53970413  0.55253191  0.01262301    -0.88400
O4253       O  0.54358842  0.49794452  0.03393048    -0.75700
C4254       C  0.89203808  0.00382526  0.98770656     0.92400
O4255       O  0.49757782  0.94787798  0.97152287    -0.75500
O4256       O  0.88989441  0.97765895  0.98524751    -0.83000
Mg4257     Mg  0.53838089  0.96166166  0.99157799     1.58000
C4258       C  0.50255656  0.61182853  0.00142340     0.92400
O4259       O  0.58324726  0.97219939  0.00686754    -0.81300
H4260       H  0.54328621  0.56291688  0.04007455    -0.06600
C4261       C  0.97813480  0.52877123  0.96862053     0.87300
O4262       O  0.94846960  0.95769691  0.03095695    -0.75800
O4263       O  0.55396637  0.51051990  0.98888266    -0.88600
O4264       O  0.52663619  0.60977356  0.99806734    -0.81400
C4265       C  0.61179906  0.60683730  0.99283106     0.92500
C4266       C  0.60902751  0.49674553  0.01140985     0.92300
Mg4267     Mg  0.96072271  0.53724615  0.00869241     1.58000
O4268       O  0.91660280  0.52667162  0.99288311    -0.81300
O4269       O  0.00134156  0.55073334  0.02890788    -0.75500
O4270       O  0.61066221  0.58235502  0.99867806    -0.81400
O4271       O  0.52287253  0.91131909  0.99580334    -0.83100
O4272       O  0.88797274  0.91769059  0.00190133    -0.81400
C4273       C  0.52903205  0.55599333  0.02764880     0.86800
O4274       O  0.94567092  0.98925515  0.01105877    -0.88500
O4275       O  0.98842019  0.53909592  0.98437598    -0.88700
O4276       O  0.95664340  0.00132408  0.96620728    -0.75700
Mg4277     Mg  0.57432149  0.53811067  0.01394001     1.58000
O4278       O  0.58784068  0.60792252  0.98837284    -0.83100
H4279       H  0.51125294  0.95556939  0.04391438    -0.06800
O4280       O  0.95902805  0.94627928  0.98757239    -0.88400
H4281       H  0.95496393  0.93545427  0.96018434    -0.06600
H4282       H  0.93577698  0.98885127  0.03850770    -0.06800
C4283       C  0.96946089  0.94264062  0.97250898     0.86700
C4284       C  0.52129693  0.97015321  0.03163303     0.87300
C4285       C  0.94266323  0.97893633  0.02719961     0.87400
H4286       H  0.98832071  0.54339971  0.95636978    -0.06800
O4287       O  0.55060994  0.54188552  0.96908684    -0.75800
Mg4288     Mg  0.92519590  0.96141257  0.98615190     1.58000
H4289       H  0.56378117  0.51113843  0.96140183    -0.06800
C4290       C  0.99640411  0.88771681  0.99902957     0.92400
O4291       O  0.90998617  0.89122276  0.01196520    -0.83000
C4292       C  0.88615910  0.89288863  0.00778504     0.92400
O4293       O  0.61077747  0.52270463  0.01424553    -0.83000
Mg4294     Mg  0.53723351  0.57274274  0.98605377     1.58200
O4295       O  0.97214558  0.88947818  0.00236393    -0.81400
O4296       O  0.97584896  0.58780053  0.00488874    -0.83100
O4297       O  0.84697181  0.64014050  0.34726875    -0.88600
C4298       C  0.89016951  0.70227060  0.30373258     0.87400
Mg4299     Mg  0.79819143  0.60572988  0.34709593     1.58100
O4300       O  0.87398833  0.73306369  0.34439672    -0.88400
O4301       O  0.87881492  0.67871243  0.36487250    -0.75700
C4302       C  0.72377168  0.67786518  0.32351299     0.92400
O4303       O  0.83132282  0.62797928  0.30263346    -0.75500
O4304       O  0.72305645  0.65280735  0.31956648    -0.83000
Mg4305     Mg  0.87334450  0.64343625  0.32157864     1.58000
C4306       C  0.83549019  0.78994576  0.33596197     0.92400
O4307       O  0.92061816  0.65751247  0.33447704    -0.81300
H4308       H  0.88005614  0.74431780  0.37170787    -0.06600
C4309       C  0.81119179  0.70822759  0.30204581     0.87300
O4310       O  0.78475758  0.63582371  0.36460157    -0.75800
O4311       O  0.88692660  0.69147372  0.31973747    -0.88600
O4312       O  0.85948833  0.78889477  0.33078915    -0.81400
C4313       C  0.94651258  0.78802151  0.32463825     0.92500
C4314       C  0.94504448  0.68173830  0.33991220     0.92300
Mg4315     Mg  0.79501523  0.71511473  0.34307188     1.58000
O4316       O  0.74831220  0.70180752  0.32919017    -0.81300
O4317       O  0.83666602  0.72987919  0.36231421    -0.75500
O4318       O  0.94401531  0.76275758  0.32988721    -0.81400
O4319       O  0.85893796  0.59259088  0.32473218    -0.83100
O4320       O  0.72464987  0.59495736  0.33469836    -0.81400
C4321       C  0.86452807  0.73647542  0.35986145     0.86800
O4322       O  0.78102118  0.66704425  0.34496374    -0.88500
O4323       O  0.82212233  0.71898315  0.31762173    -0.88700
O4324       O  0.79019116  0.68022452  0.30010289    -0.75700
Mg4325     Mg  0.90817844  0.71912834  0.34488869     1.58000
O4326       O  0.92303376  0.79014065  0.32004705    -0.83100
H4327       H  0.84895253  0.63597417  0.37514747    -0.06800
O4328       O  0.79455151  0.62554302  0.32069055    -0.88400
H4329       H  0.78771450  0.61325319  0.29355605    -0.06600
H4330       H  0.77123159  0.66620068  0.37245941    -0.06800
C4331       C  0.80355949  0.62152750  0.30524534     0.86700
C4332       C  0.85801630  0.65069115  0.36284664     0.87300
C4333       C  0.77831610  0.65664710  0.36104217     0.87400
H4334       H  0.82042206  0.72277318  0.28968288    -0.06800
O4335       O  0.88450427  0.72367469  0.30031811    -0.75800
Mg4336     Mg  0.76023249  0.63940524  0.31984205     1.58000
H4337       H  0.89721967  0.69273602  0.29228814    -0.06800
C4338       C  0.83359258  0.56865777  0.32976016     0.92400
O4339       O  0.74684636  0.56924326  0.34567979    -0.83000
C4340       C  0.72301913  0.57034128  0.34067408     0.92400
O4341       O  0.94524032  0.70624082  0.34453924    -0.83000
Mg4342     Mg  0.87113330  0.75356464  0.31816415     1.58200
O4343       O  0.80973515  0.56987962  0.33505554    -0.81400
O4344       O  0.80987169  0.76590633  0.34039938    -0.83100
O4345       O  0.65021668  0.85854248  0.68157245    -0.88600
C4346       C  0.61326589  0.79745350  0.63731160     0.87400
Mg4347     Mg  0.69799516  0.89515374  0.68246185     1.58100
O4348       O  0.62778317  0.76687339  0.67843442    -0.88400
O4349       O  0.61673614  0.81893175  0.69823571    -0.75700
C4350       C  0.78026674  0.82873937  0.66211426     0.92400
O4351       O  0.66998723  0.87216106  0.63768406    -0.75500
O4352       O  0.78167482  0.85471522  0.66126513    -0.83000
Mg4353     Mg  0.62576958  0.85496900  0.65590890     1.58000
C4354       C  0.67023532  0.71348234  0.66946436     0.92400
O4355       O  0.57789856  0.83922106  0.66968759    -0.81300
H4356       H  0.61972962  0.75443864  0.70560222    -0.06600
C4357       C  0.69621734  0.79747197  0.63768461     0.87300
O4358       O  0.71109279  0.86566724  0.70073573    -0.75800
O4359       O  0.61438661  0.80728858  0.65342508    -0.88600
O4360       O  0.64596991  0.71399925  0.66504826    -0.81400
C4361       C  0.55954833  0.70854512  0.65697465     0.92500
C4362       C  0.55293095  0.81346440  0.67235492     0.92300
Mg4363     Mg  0.70770368  0.78825944  0.67788955     1.58000
O4364       O  0.75446122  0.80333935  0.66250277    -0.81300
O4365       O  0.66421786  0.77069346  0.69682403    -0.75500
O4366       O  0.55983144  0.73242119  0.66329353    -0.81400
O4367       O  0.63782408  0.90558007  0.65912335    -0.83100
O4368       O  0.77379771  0.91106538  0.67375153    -0.81400
C4369       C  0.63627478  0.76330840  0.69400479     0.86800
O4370       O  0.71896346  0.83600252  0.68154604    -0.88500
O4371       O  0.68265587  0.78562650  0.65268914    -0.88700
O4372       O  0.71771426  0.82555746  0.63684158    -0.75700
Mg4373     Mg  0.59156668  0.77806601  0.67787943     1.58000
O4374       O  0.58423159  0.70879602  0.65200879    -0.83100
H4375       H  0.64401546  0.86160273  0.70924023    -0.06800
O4376       O  0.70649292  0.87712626  0.65645380    -0.88400
H4377       H  0.71456920  0.88841750  0.62912429    -0.06600
H4378       H  0.72455412  0.83576836  0.70940404    -0.06800
C4379       C  0.69797958  0.87991208  0.64070577     0.86700
C4380       C  0.63723397  0.84724367  0.69678772     0.87300
C4381       C  0.71871477  0.84540873  0.69764286     0.87400
H4382       H  0.68947479  0.78374815  0.62496708    -0.06800
O4383       O  0.62079960  0.77729526  0.63385380    -0.75800
Mg4384     Mg  0.74289660  0.86593477  0.65781076     1.58000
H4385       H  0.60650073  0.80679937  0.62583354    -0.06800
C4386       C  0.66306714  0.93015449  0.66317265     0.92400
O4387       O  0.74789499  0.93454438  0.68266742    -0.83000
C4388       C  0.77306759  0.93502871  0.67896727     0.92400
O4389       O  0.55269505  0.78841001  0.67517896    -0.83000
Mg4390     Mg  0.63467573  0.74852106  0.65191306     1.58200
O4391       O  0.68695858  0.92963556  0.66855487    -0.81400
O4392       O  0.69556593  0.73793321  0.67349150    -0.83100
C4393       C  0.84067942  0.80958901  0.75255025    -0.06400
C4394       C  0.86337774  0.82119937  0.76672265    -0.17600
C4395       C  0.86165159  0.83816883  0.78195134     0.10800
C4396       C  0.83598497  0.84243371  0.78364026    -0.06300
C4397       C  0.81142947  0.82753320  0.77091247    -0.17600
C4398       C  0.81342017  0.81104709  0.75546028     0.10800
S4399       S  0.89424739  0.85786417  0.79755462    -0.32600
S4400       S  0.78128286  0.79388620  0.73948684    -0.32600
H4401       H  0.78698552  0.77055211  0.73319660     0.28800
H4402       H  0.91068352  0.84362538  0.79100297     0.28800
H4403       H  0.88440296  0.82022868  0.76477309     0.19400
H4404       H  0.79152578  0.83062177  0.77228739     0.19400
C4405       C  0.84716922  0.79863717  0.58144283    -0.06400
C4406       C  0.82836157  0.81138225  0.57799406    -0.17600
C4407       C  0.81207713  0.80537089  0.56124011     0.10800
C4408       C  0.81441284  0.78596737  0.54772801    -0.06300
C4409       C  0.83591256  0.77616881  0.55022367    -0.17600
C4410       C  0.85218049  0.78208533  0.56702115     0.10800
S4411       S  0.78549562  0.81951252  0.55902017    -0.32600
S4412       S  0.87430005  0.76325571  0.57046778    -0.32600
H4413       H  0.90173655  0.79074411  0.57451269     0.28800
H4414       H  0.78365962  0.81754950  0.53927895     0.28800
H4415       H  0.82516499  0.82491120  0.58881169     0.19400
H4416       H  0.83710184  0.76059015  0.54004663     0.19400
C4417       C  0.99272221  0.82988051  0.58182721    -0.06400
C4418       C  0.97263381  0.82309678  0.56644338    -0.17600
C4419       C  0.97453447  0.80757704  0.55039508     0.10800
C4420       C  0.99848000  0.80060163  0.54890199    -0.06300
C4421       C  0.52116378  0.81228575  0.56221166    -0.17600
C4422       C  0.01906444  0.82668108  0.57911792     0.10800
S4423       S  0.94342705  0.79243407  0.53356210    -0.32600
S4424       S  0.54933314  0.84054052  0.59539746    -0.32600
H4425       H  0.54540503  0.86475164  0.60219714     0.28800
H4426       H  0.92907140  0.80869268  0.54018821     0.28800
H4427       H  0.95311831  0.82666519  0.56784008     0.19400
H4428       H  0.54005195  0.80758095  0.56109141     0.19400
C4429       C  0.87744755  0.99162443  0.75369699    -0.06400
C4430       C  0.89879125  0.98566712  0.76257277    -0.17600
C4431       C  0.88955374  0.96442812  0.77744885     0.10800
C4432       C  0.85822977  0.94865410  0.78375012    -0.06300
C4433       C  0.83731747  0.95593335  0.77568362    -0.17600
C4434       C  0.84662988  0.97750120  0.76098776     0.10800
S4435       S  0.91824204  0.95650034  0.78680301    -0.32600
S4436       S  0.81868754  0.48580430  0.75244091    -0.32600
H4437       H  0.84000146  0.51717473  0.74890012     0.28800
H4438       H  0.90422287  0.94669077  0.80470680     0.28800
H4439       H  0.92250000  0.99653223  0.75733152     0.19400
H4440       H  0.81325582  0.94377555  0.78033074     0.19400
C4441       C  0.83867894  0.50163425  0.58634448    -0.06400
C4442       C  0.81076196  0.47327410  0.58515771    -0.17600
C4443       C  0.79061701  0.46683084  0.57000503     0.10800
C4444       C  0.79753033  0.48978259  0.55620953    -0.06300
C4445       C  0.82662212  0.51677968  0.55646933    -0.17600
C4446       C  0.84786148  0.52208680  0.57064887     0.10800
S4447       S  0.75505787  0.92919662  0.56918615    -0.32600
S4448       S  0.88585423  0.55592769  0.56793401    -0.32600
H4449       H  0.90133721  0.54291329  0.57714568     0.28800
H4450       H  0.75090120  0.92877786  0.54958481     0.28800
H4451       H  0.80364442  0.45671639  0.59657559     0.19400
H4452       H  0.83259968  0.53433835  0.54579303     0.19400
C4453       C  0.95043702  0.65514164  0.58390695    -0.06400
C4454       C  0.98211003  0.67172086  0.57872900    -0.17600
C4455       C  0.99259164  0.69058683  0.56271156     0.10800
C4456       C  0.97115064  0.69322010  0.55135438    -0.06300
C4457       C  0.93939790  0.67547243  0.55575999    -0.17600
C4458       C  0.92880008  0.65674569  0.57191418     0.10800
S4459       S  0.03385086  0.71234961  0.55817230    -0.32600
S4460       S  0.88781931  0.63790823  0.57711669    -0.32600
H4461       H  0.89184959  0.64691929  0.59617742     0.28800
H4462       H  0.03194847  0.71583175  0.53867269     0.28800
H4463       H  0.99909987  0.67036045  0.58736526     0.19400
H4464       H  0.92293558  0.67814130  0.54736033     0.19400
C4465       C  0.51104978  0.87019771  0.78822306    -0.06400
C4466       C  0.51847899  0.85029034  0.77856112    -0.17600
C4467       C  0.50473516  0.83728186  0.76136537     0.10800
C4468       C  0.48302351  0.84427530  0.75381342    -0.06300
C4469       C  0.47308492  0.86130185  0.76457180    -0.17600
C4470       C  0.48712595  0.87460961  0.78161638     0.10800
S4471       S  0.01302087  0.81140314  0.75155657    -0.32600
S4472       S  0.47695327  0.90066046  0.79284262    -0.32600
H4473       H  0.48556855  0.89750023  0.81109145     0.28800
H4474       H  0.98454805  0.79304520  0.74252488     0.28800
H4475       H  0.53712327  0.84717846  0.78357577     0.19400
H4476       H  0.45594396  0.86623450  0.75900021     0.19400
C4477       C  0.99747149  0.64648233  0.74922391    -0.06400
C4478       C  0.99180414  0.62462966  0.76342914    -0.17600
C4479       C  0.51296646  0.63036868  0.77686376     0.10800
C4480       C  0.54058142  0.65928951  0.77737884    -0.06300
C4481       C  0.54475360  0.68232909  0.76458149    -0.17600
C4482       C  0.52306881  0.67644313  0.75047554     0.10800
S4483       S  0.50487770  0.59897410  0.79264146    -0.32600
S4484       S  0.53080033  0.70804333  0.73506885    -0.32600
H4485       H  0.99978409  0.69944707  0.73437581     0.28800
H4486       H  0.53561521  0.60590767  0.79480546     0.28800
H4487       H  0.97146667  0.60177526  0.76284058     0.19400
H4488       H  0.56571877  0.70474473  0.76513735     0.19400
C4489       C  0.60750560  0.96603400  0.78676848    -0.06400
C4490       C  0.62501021  0.95721493  0.77539711    -0.17600
C4491       C  0.63425242  0.96877074  0.75704013     0.10800
C4492       C  0.62697802  0.99057510  0.75002161    -0.06300
C4493       C  0.61688740  0.50396637  0.76281475    -0.17600
C4494       C  0.60231663  0.98954422  0.78027895     0.10800
S4495       S  0.65499668  0.95474302  0.74318647    -0.32600
S4496       S  0.58608509  0.50595737  0.79471511    -0.32600
H4497       H  0.59129757  0.49684867  0.81230094     0.28800
H4498       H  0.63108585  0.94025051  0.72998358     0.28800
H4499       H  0.62852545  0.93870008  0.78007490     0.19400
H4500       H  0.61304478  0.52228323  0.75816043     0.19400
C4501       C  0.67018682  0.64163556  0.75094564    -0.06400
C4502       C  0.65099893  0.62014418  0.76477431    -0.17600
C4503       C  0.63419750  0.62707240  0.77797304     0.10800
C4504       C  0.63722676  0.65663413  0.77795937    -0.06300
C4505       C  0.65847927  0.67902967  0.76532082    -0.17600
C4506       C  0.67524066  0.67205572  0.75206608     0.10800
S4507       S  0.60767049  0.59629254  0.79348333    -0.32600
S4508       S  0.70224548  0.70286881  0.73680349    -0.32600
H4509       H  0.72259631  0.69134598  0.73462176     0.28800
H4510       H  0.58499329  0.60487949  0.79484046     0.28800
H4511       H  0.64675478  0.59674726  0.76428966     0.19400
H4512       H  0.66129471  0.70189156  0.76538658     0.19400
C4513       C  0.66471279  0.50241920  0.57924250    -0.06400
C4514       C  0.66686994  0.47564643  0.58118279    -0.17600
C4515       C  0.68237307  0.46749878  0.56772157     0.10800
C4516       C  0.69765359  0.48712871  0.55210323    -0.06300
C4517       C  0.69267108  0.51193142  0.54906475    -0.17600
C4518       C  0.67533255  0.51889443  0.56192829     0.10800
S4519       S  0.68306703  0.43242869  0.57181972    -0.32600
S4520       S  0.66840751  0.54948733  0.55544525    -0.32600
H4521       H  0.63784711  0.53441505  0.56270827     0.28800
H4522       H  0.68848484  0.42784975  0.55287632     0.28800
H4523       H  0.65773945  0.46158721  0.59377680     0.19400
H4524       H  0.70344245  0.52686003  0.53696402     0.19400
C4525       C  0.70150087  0.65564158  0.58188807    -0.06400
C4526       C  0.69123868  0.67651242  0.57843144    -0.17600
C4527       C  0.69918534  0.69351617  0.56162855     0.10800
C4528       C  0.71785883  0.68973083  0.54806361    -0.06300
C4529       C  0.72568983  0.66686485  0.55071821    -0.17600
C4530       C  0.71801378  0.64999850  0.56755126     0.10800
S4531       S  0.68833534  0.72244239  0.55826063    -0.32600
S4532       S  0.73302153  0.62434282  0.57062550    -0.32600
H4533       H  0.74090947  0.63185164  0.58966109     0.28800
H4534       H  0.67034265  0.71606466  0.57486802     0.28800
H4535       H  0.67777446  0.68014323  0.58917395     0.19400
H4536       H  0.74083957  0.66460630  0.54054412     0.19400
C4537       C  0.48567456  0.81147237  0.91720163    -0.06400
C4538       C  0.48581343  0.83956020  0.91835993    -0.17600
C4539       C  0.50180482  0.86299885  0.90504322     0.10800
C4540       C  0.51839873  0.85863554  0.89026220    -0.06300
C4541       C  0.51500541  0.82937241  0.88769685    -0.17600
C4542       C  0.49788922  0.80544584  0.90058278     0.10800
S4543       S  0.50216030  0.89880097  0.90846690    -0.32600
S4544       S  0.99287911  0.76824121  0.89494188    -0.32600
H4545       H  0.96414010  0.75125933  0.90443510     0.28800
H4546       H  0.50732113  0.90779917  0.88939264     0.28800
H4547       H  0.47565583  0.84447123  0.93052744     0.19400
H4548       H  0.52675838  0.82548711  0.87596034     0.19400
C4549       C  0.53560373  0.70477922  0.91436658    -0.06400
C4550       C  0.52545420  0.67331032  0.91165371    -0.17600
C4551       C  0.53303271  0.66275865  0.89521446     0.10800
C4552       C  0.55111404  0.68384715  0.88083598    -0.06300
C4553       C  0.55937220  0.71484091  0.88283212    -0.17600
C4554       C  0.55243287  0.72574229  0.89945126     0.10800
S4555       S  0.52154011  0.62249047  0.89406903    -0.32600
S4556       S  0.56831086  0.76691015  0.90189944    -0.32600
H4557       H  0.58554898  0.77605257  0.88491522     0.28800
H4558       H  0.52402574  0.62141634  0.87432518     0.28800
H4559       H  0.51206353  0.65674271  0.92262276     0.19400
H4560       H  0.57413411  0.73107784  0.87208045     0.19400
C4561       C  0.82733399  0.81117614  0.92007467    -0.06400
C4562       C  0.80424391  0.79721283  0.90622633    -0.17600
C4563       C  0.80422518  0.81349868  0.89032690     0.10800
C4564       C  0.82854941  0.84403831  0.88758912    -0.06300
C4565       C  0.85373908  0.85653386  0.89993567    -0.17600
C4566       C  0.85355694  0.84046437  0.91612526     0.10800
S4567       S  0.77132071  0.79485088  0.87492687    -0.32600
S4568       S  0.88622018  0.85847385  0.93182389    -0.32600
H4569       H  0.90559522  0.88377881  0.92017307     0.28800
H4570       H  0.76867261  0.82097537  0.87158508     0.28800
H4571       H  0.78434643  0.77441417  0.90857098     0.19400
H4572       H  0.87253760  0.87992722  0.89756641     0.19400
C4573       C  0.64762927  0.68520200  0.88001165    -0.06400
C4574       C  0.66868436  0.71651261  0.88319110    -0.17600
C4575       C  0.68547973  0.72627401  0.89986095     0.10800
C4576       C  0.68288597  0.70406667  0.91312207    -0.06300
C4577       C  0.66369238  0.67257207  0.90908137    -0.17600
C4578       C  0.64589490  0.66297417  0.89277424     0.10800
S4579       S  0.70582781  0.76718514  0.90448537    -0.32600
S4580       S  0.61899569  0.62229478  0.88988004    -0.32600
H4581       H  0.61605158  0.62342745  0.87025007     0.28800
H4582       H  0.69523409  0.76408089  0.92329381     0.28800
H4583       H  0.66900381  0.73364461  0.87379601     0.19400
H4584       H  0.66172153  0.65529480  0.91899028     0.19400
C4585       C  0.61923697  0.95493261  0.89046446    -0.06400
C4586       C  0.61445841  0.97236146  0.90422692    -0.17600
C4587       C  0.63595559  0.98761128  0.91866805     0.10800
C4588       C  0.66310310  0.98524725  0.91944658    -0.06300
C4589       C  0.66916252  0.97048913  0.90435379    -0.17600
C4590       C  0.64740961  0.95482461  0.89025139     0.10800
S4591       S  0.62731478  0.00866530  0.93617207    -0.32600
S4592       S  0.65608573  0.93310396  0.87336115    -0.32600
H4593       H  0.62571829  0.90790730  0.87205448     0.28800
H4594       H  0.59981237  0.00439486  0.92817036     0.28800
H4595       H  0.59284910  0.97249774  0.90420056     0.19400
H4596       H  0.68913213  0.46655065  0.90481262     0.19400
C4597       C  0.80321230  0.92558922  0.88376584    -0.06400
C4598       C  0.82411265  0.95451471  0.89126516    -0.17600
C4599       C  0.81494053  0.96757766  0.90567694     0.10800
C4600       C  0.78444779  0.95081782  0.91346919    -0.06300
C4601       C  0.76299124  0.92287974  0.90501038    -0.17600
C4602       C  0.77198195  0.91025867  0.89023117     0.10800
S4603       S  0.84143532  0.50358969  0.91338731    -0.32600
S4604       S  0.74313957  0.87324364  0.88113783    -0.32600
H4605       H  0.75709600  0.87691587  0.86323706     0.28800
H4606       H  0.81957551  0.51276313  0.91734257     0.28800
H4607       H  0.84806128  0.96642455  0.88639788     0.19400
H4608       H  0.73942700  0.91007357  0.91049415     0.19400
C4609       C  0.94656989  0.81389763  0.12020454    -0.06400
C4610       C  0.96622893  0.83707086  0.10743071    -0.17600
C4611       C  0.97799217  0.83019147  0.09119275     0.10800
C4612       C  0.96910108  0.79911608  0.08713535    -0.06300
C4613       C  0.95164238  0.77647976  0.10084820    -0.17600
C4614       C  0.94053082  0.78355345  0.11725488     0.10800
S4615       S  0.50374346  0.86162174  0.07740125    -0.32600
S4616       S  0.91583757  0.75218827  0.13291550    -0.32600
H4617       H  0.92162389  0.77048203  0.14909703     0.28800
H4618       H  0.52347679  0.84977610  0.07359948     0.28800
H4619       H  0.97078833  0.86039814  0.10949227     0.19400
H4620       H  0.94525006  0.75267989  0.09840513     0.19400
C4621       C  0.85151651  0.81710086  0.11777633    -0.06400
C4622       C  0.82107511  0.79236830  0.11937753    -0.17600
C4623       C  0.79993918  0.78652074  0.10509882     0.10800
C4624       C  0.81070129  0.80301514  0.08791177    -0.06300
C4625       C  0.84012309  0.82982614  0.08733486    -0.17600
C4626       C  0.86016245  0.83759821  0.10240292     0.10800
S4627       S  0.75979113  0.75928243  0.11012697    -0.32600
S4628       S  0.89736344  0.87266642  0.10065388    -0.32600
H4629       H  0.90203242  0.87699396  0.12021208     0.28800
H4630       H  0.74839475  0.77475741  0.09932595     0.28800
H4631       H  0.81389966  0.77740533  0.13163980     0.19400
H4632       H  0.84825445  0.84419480  0.07481598     0.19400
C4633       C  0.84879982  0.00110805  0.41993905    -0.06400
C4634       C  0.84010459  0.97921220  0.43460414    -0.17600
C4635       C  0.82275217  0.97930959  0.45029502     0.10800
C4636       C  0.81575244  0.00308821  0.45217684    -0.06300
C4637       C  0.82936415  0.52839440  0.43983657    -0.17600
C4638       C  0.84587966  0.02727516  0.42329446     0.10800
S4639       S  0.80529086  0.94616399  0.46581605    -0.32600
S4640       S  0.86150835  0.55979935  0.40779351    -0.32600
H4641       H  0.88490928  0.55471635  0.40049012     0.28800
H4642       H  0.82387207  0.93382481  0.46004436     0.28800
H4643       H  0.84308632  0.95948617  0.43265446     0.19400
H4644       H  0.82542609  0.54761077  0.44156773     0.19400
C4645       C  0.80878665  0.85288307  0.41832806    -0.06400
C4646       C  0.82079583  0.83320927  0.42071284    -0.17600
C4647       C  0.81219153  0.81347366  0.43619361     0.10800
C4648       C  0.79088063  0.81315170  0.44953736    -0.06300
C4649       C  0.78101780  0.83473778  0.44809437    -0.17600
C4650       C  0.78992405  0.85479949  0.43264573     0.10800
S4651       S  0.82582292  0.78637566  0.43684422    -0.32600
S4652       S  0.77266467  0.87858878  0.43051015    -0.32600
H4653       H  0.80099271  0.90572889  0.42690030     0.28800
H4654       H  0.82218397  0.78133174  0.45641998     0.28800
H4655       H  0.83570580  0.83201517  0.40988296     0.19400
H4656       H  0.76400911  0.83394211  0.45809982     0.19400
C4657       C  0.85692645  0.84514951  0.21921832    -0.06400
C4658       C  0.84889299  0.86792540  0.21728797    -0.17600
C4659       C  0.83240865  0.87317299  0.23160770     0.10800
C4660       C  0.82476717  0.85571697  0.24864436    -0.06300
C4661       C  0.82926199  0.83025102  0.24923995    -0.17600
C4662       C  0.84517861  0.82482456  0.23476874     0.10800
S4663       S  0.82428553  0.90411686  0.22821679    -0.32600
S4664       S  0.85284303  0.79366814  0.23792702    -0.32600
H4665       H  0.85705016  0.78978393  0.21866076     0.28800
H4666       H  0.83354206  0.91019223  0.20914189     0.28800
H4667       H  0.85778797  0.88323530  0.20521053     0.19400
H4668       H  0.82275367  0.81594802  0.26177628     0.19400
C4669       C  0.51984769  0.84032748  0.41547358    -0.06400
C4670       C  0.54172694  0.84589551  0.42954518    -0.17600
C4671       C  0.53634788  0.82392202  0.44340248     0.10800
C4672       C  0.50760957  0.79605255  0.44415001    -0.06300
C4673       C  0.48479797  0.79124366  0.43097729    -0.17600
C4674       C  0.49046345  0.81301402  0.41679081     0.10800
S4675       S  0.56811155  0.83196606  0.45872398    -0.32600
S4676       S  0.45932934  0.80445524  0.40086469    -0.32600
H4677       H  0.46753990  0.83544861  0.39827965     0.28800
H4678       H  0.56197445  0.80145557  0.45995855     0.28800
H4679       H  0.56442941  0.86649641  0.42887155     0.19400
H4680       H  0.46261600  0.76994148  0.43147687     0.19400
C4681       C  0.67249595  0.96255361  0.41459145    -0.06400
C4682       C  0.69665532  0.99322522  0.41660330    -0.17600
C4683       C  0.71496787  0.00300967  0.43263228     0.10800
C4684       C  0.70981276  0.98160977  0.44706482    -0.06300
C4685       C  0.68464934  0.95133645  0.44566370    -0.17600
C4686       C  0.66570154  0.94158735  0.42965204     0.10800
S4687       S  0.74594599  0.04275784  0.43330033    -0.32600
S4688       S  0.63497391  0.90182203  0.42802756    -0.32600
H4689       H  0.63733343  0.89308802  0.44646888     0.28800
H4690       H  0.74832285  0.04463287  0.45306082     0.28800
H4691       H  0.70149254  0.00989346  0.40550838     0.19400
H4692       H  0.68124328  0.93481841  0.45654336     0.19400
C4693       C  0.00182504  0.88922401  0.25076122    -0.06400
C4694       C  0.00411055  0.91073071  0.23738522    -0.17600
C4695       C  0.98528604  0.90104922  0.22146697     0.10800
C4696       C  0.96416979  0.86928180  0.21883762    -0.06300
C4697       C  0.96395648  0.84774176  0.23131688    -0.17600
C4698       C  0.98264920  0.85728994  0.24716264     0.10800
S4699       S  0.98694451  0.93032048  0.20607912    -0.32600
S4700       S  0.48076729  0.82679304  0.26253963    -0.32600
H4701       H  0.51224419  0.84348601  0.26749662     0.28800
H4702       H  0.97579331  0.91156351  0.19000983     0.28800
H4703       H  0.01929692  0.93518254  0.23987006     0.19400
H4704       H  0.94754768  0.82337685  0.22937065     0.19400
C4705       C  0.97206462  0.64502028  0.11164646    -0.06400
C4706       C  0.99578016  0.64345148  0.10180291    -0.17600
C4707       C  0.01392700  0.66551781  0.08807502     0.10800
C4708       C  0.00801050  0.68960659  0.08402330    -0.06300
C4709       C  0.98666413  0.69298550  0.09550239    -0.17600
C4710       C  0.96824647  0.67071983  0.10897310     0.10800
S4711       S  0.04380175  0.66206619  0.07555054    -0.32600
S4712       S  0.93903032  0.67559075  0.12122012    -0.32600
H4713       H  0.91725292  0.64421689  0.12402030     0.28800
H4714       H  0.04010005  0.63610903  0.08534802     0.28800
H4715       H  0.99887459  0.62390462  0.10421694     0.19400
H4716       H  0.98204833  0.71150024  0.09279021     0.19400
C4717       C  0.83609281  0.51165088  0.07935951    -0.06400
C4718       C  0.86584481  0.51515526  0.07782511    -0.17600
C4719       C  0.88780043  0.52951458  0.09204582     0.10800
C4720       C  0.88033217  0.54130904  0.10816146    -0.06300
C4721       C  0.84975065  0.53495744  0.11063746    -0.17600
C4722       C  0.82737218  0.51971069  0.09669333     0.10800
S4723       S  0.92711674  0.03679375  0.08780560    -0.32600
S4724       S  0.78817734  0.51156895  0.10126279    -0.32600
H4725       H  0.79353774  0.52633371  0.11886786     0.28800
H4726       H  0.93327272  0.53637983  0.10748125     0.28800
H4727       H  0.87456229  0.01132663  0.06424396     0.19400
H4728       H  0.84389413  0.54357626  0.12311760     0.19400
C4729       C  0.86222818  0.50077085  0.24702626    -0.06400
C4730       C  0.87844431  0.49232510  0.23427325    -0.17600
C4731       C  0.88825328  0.50684361  0.21664436     0.10800
C4732       C  0.88121355  0.52969581  0.21170373    -0.06300
C4733       C  0.86124299  0.53475237  0.22334208    -0.17600
C4734       C  0.85140825  0.02059417  0.24052144     0.10800
S4735       S  0.91275612  0.49893792  0.20148770    -0.32600
S4736       S  0.82694770  0.02961165  0.25489560    -0.32600
H4737       H  0.81052231  0.00050982  0.26366875     0.28800
H4738       H  0.91012805  0.47405297  0.21203452     0.28800
H4739       H  0.88530681  0.47603728  0.23866608     0.19400
H4740       H  0.85581265  0.55236290  0.21953391     0.19400
C4741       C  0.67836436  0.65288614  0.11373541    -0.06400
C4742       C  0.64986164  0.64653893  0.10615881    -0.17600
C4743       C  0.64867366  0.66214759  0.09000782     0.10800
C4744       C  0.67657483  0.68453597  0.08111564    -0.06300
C4745       C  0.70488344  0.69146423  0.08923370    -0.17600
C4746       C  0.70609638  0.67601166  0.10523775     0.10800
S4747       S  0.61106694  0.65176675  0.08112930    -0.32600
S4748       S  0.74382654  0.68403162  0.11281996    -0.32600
H4749       H  0.73564510  0.67723847  0.13197591     0.28800
H4750       H  0.62010676  0.68115275  0.07382460     0.28800
H4751       H  0.62846702  0.62816708  0.11224455     0.19400
H4752       H  0.72651626  0.70781935  0.08235396     0.19400
C4753       C  0.70270305  0.57123282  0.11730607    -0.06400
C4754       C  0.68036113  0.54412765  0.10859243    -0.17600
C4755       C  0.68801380  0.53215585  0.09283020     0.10800
C4756       C  0.71873349  0.54807987  0.08537413    -0.06300
C4757       C  0.74158326  0.57371061  0.09517139    -0.17600
C4758       C  0.73389725  0.58536758  0.11102957     0.10800
S4759       S  0.65827403  0.49649888  0.08255557    -0.32600
S4760       S  0.76434998  0.62000518  0.12164852    -0.32600
H4761       H  0.75044696  0.61480388  0.13964786     0.28800
H4762       H  0.63366975  0.49221287  0.09450765     0.28800
H4763       H  0.65649460  0.53348705  0.11347574     0.19400
H4764       H  0.76533522  0.58561102  0.08995727     0.19400
C4765       C  0.67200880  0.55846904  0.22022071    -0.06400
C4766       C  0.69219621  0.56467087  0.23536821    -0.17600
C4767       C  0.68530222  0.54295863  0.24981325     0.10800
C4768       C  0.65681389  0.01355268  0.24959232    -0.06300
C4769       C  0.63825602  0.00621428  0.23344002    -0.17600
C4770       C  0.64503503  0.02785407  0.21904276     0.10800
S4771       S  0.71343027  0.55355781  0.26821043    -0.32600
S4772       S  0.61682409  0.01709481  0.20064792    -0.32600
H4773       H  0.61785679  0.04556904  0.19994922     0.28800
H4774       H  0.70746843  0.52332465  0.27111846     0.28800
H4775       H  0.71299865  0.58715144  0.23631563     0.19400
H4776       H  0.61660625  0.98443587  0.23275017     0.19400
C4777       C  0.51643878  0.66717784  0.41894481    -0.06400
C4778       C  0.53802311  0.68334261  0.43316217    -0.17600
C4779       C  0.53138739  0.69800025  0.44784196     0.10800
C4780       C  0.50210361  0.69594138  0.44878694    -0.06300
C4781       C  0.47920254  0.67659208  0.43599143    -0.17600
C4782       C  0.48597504  0.66208489  0.42113883     0.10800
S4783       S  0.56298659  0.72304738  0.46295625    -0.32600
S4784       S  0.45602736  0.63851810  0.40456535    -0.32600
H4785       H  0.43143639  0.63898897  0.41418998     0.28800
H4786       H  0.54501275  0.71616935  0.47950037     0.28800
H4787       H  0.56138892  0.68733499  0.43182551     0.19400
H4788       H  0.45674128  0.67493612  0.43674826     0.19400
C4789       C  0.66767752  0.70220736  0.41271306    -0.06400
C4790       C  0.69057981  0.69409157  0.41464968    -0.17600
C4791       C  0.70617178  0.69882336  0.43164113     0.10800
C4792       C  0.69927944  0.71253967  0.44693750    -0.06300
C4793       C  0.67412287  0.71740670  0.44571558    -0.17600
C4794       C  0.65863629  0.71297775  0.42870498     0.10800
S4795       S  0.73718527  0.69035905  0.43245758    -0.32600
S4796       S  0.63037085  0.72518908  0.42784894    -0.32600
H4797       H  0.63981442  0.73918953  0.40997450     0.28800
H4798       H  0.73806461  0.68939687  0.45225339     0.28800
H4799       H  0.69685950  0.68463830  0.40274072     0.19400
H4800       H  0.66925453  0.72861249  0.45728411     0.19400
C4801       C  0.96555315  0.63419795  0.21554023    -0.06400
C4802       C  0.99739892  0.64496783  0.21534999    -0.17600
C4803       C  0.51608206  0.65886252  0.23110908     0.10800
C4804       C  0.00000894  0.65719454  0.24886154    -0.06300
C4805       C  0.96898870  0.65010491  0.24830522    -0.17600
C4806       C  0.95207969  0.63991599  0.23160055     0.10800
S4807       S  0.55755649  0.67876928  0.22786399    -0.32600
S4808       S  0.91227618  0.63126704  0.23125736    -0.32600
H4809       H  0.91163017  0.64203401  0.24952111     0.28800
H4810       H  0.56268655  0.70438525  0.23878389     0.28800
H4811       H  0.50951432  0.64160075  0.20274706     0.19400
H4812       H  0.95756812  0.65137507  0.26108217     0.19400
C4813       C  0.64653972  0.68045582  0.24530760    -0.06400
C4814       C  0.67796283  0.69253027  0.24043713    -0.17600
C4815       C  0.68702718  0.67827747  0.22667225     0.10800
C4816       C  0.66419623  0.65164594  0.21733430    -0.06300
C4817       C  0.63287632  0.64051768  0.22154787    -0.17600
C4818       C  0.62389037  0.65380190  0.23578615     0.10800
S4819       S  0.72799853  0.69374438  0.22267104    -0.32600
S4820       S  0.58387154  0.63213411  0.24333687    -0.32600
H4821       H  0.59111109  0.63361371  0.26250385     0.28800
H4822       H  0.72561556  0.68173251  0.20443308     0.28800
H4823       H  0.69559987  0.71240041  0.24793465     0.19400
H4824       H  0.61540954  0.61936020  0.21499036     0.19400
loop_ 
_geom_bond_atom_site_label_1 
_geom_bond_atom_site_label_2 
_geom_bond_distance 
_geom_bond_site_symmetry_2 
_ccdc_geom_bond_type 
O1           Mg3   2.147       .  S
O1           Mg9   2.149       .  S
O1           C36   1.233       .  S
C2           O15   1.235       .  S
C2           O39   1.270       .  A
C2           H41   1.081       .  S
Mg3          O32   2.166       .  S
Mg3          O47   2.301       .  S
Mg3          O43   2.261   1_455  S
Mg3          O14   2.308       .  S
O4          Mg46   2.160       .  S
O4          Mg29   2.137       .  S
O4           C25   1.236       .  S
O5           C36   1.268       .  A
O5          Mg29   2.297       .  S
C6           O20   1.269       .  A
C6         O2420   1.276       .  A
C6         C3598   1.494       .  S
O7           C35   1.270       .  A
O7           Mg9   2.302       .  S
O8         C2418   1.276       .  A
O8        Mg2452   2.298       .  S
Mg9          O15   2.175       .  S
Mg9          O23   2.290       .  S
Mg9          O11   2.270       .  S
C10          O48   1.270       .  A
C10          O16   1.270       .  A
C10        C1195   1.484       .  S
O11          C18   1.270       .  A
H12          C25   1.081       .  S
C13          O27   1.233       .  S
C13          O28   1.269       .  A
C13          H38   1.081       .  S
O14          C37   1.271       .  A
O15         Mg29   2.185       .  S
O16         Mg46   2.294       .  S
C17          O30   1.271       .  A
C17          O22   1.276       .  A
C17         C684   1.472       .  S
C18          O45   1.274       .  A
C18        C1171   1.477       .  S
Mg19         O26   2.179       .  S
Mg19         O27   2.142       .  S
Mg19         O20   2.275       .  S
Mg19         O21   2.309       .  S
Mg19         O48   2.282       .  S
O21          C25   1.272       .  A
O22         Mg29   2.309       .  S
O23          C42   1.273       .  A
O24          C44   1.277       .  A
O24       Mg2452   2.305       .  S
O26         Mg40   2.178       .  S
O26          C37   1.235       .  S
O27         Mg46   2.163       .  S
O28         Mg40   2.304       .  S
Mg29         O45   2.271       .  S
O30         Mg46   2.283       .  S
H31          C36   1.081       .  S
O32         Mg40   2.147       .  S
O32          C35   1.235       .  S
H33          C35   1.081   1_655  S
H34          C37   1.081       .  S
O39         Mg46   2.300       .  S
Mg40       O2420   2.297       .  S
Mg40       O2436   2.306   1_455  S
C42          O47   1.272       .  A
C42        C1159   1.493       .  S
O43        C2456   1.268       .  A
C44        O2455   1.268       .  A
C44         C696   1.464       .  S
C49        C1147   1.496       .  S
C49          C50   1.400       .  A
C49          C54   1.420       .  A
C50          H69   1.086       .  S
C50          C51   1.400       .  A
C51        C1198   1.484       .  S
C51          C52   1.415       .  A
C52          C53   1.420       .  A
C52          C59   1.408       .  A
C53          C54   1.424       .  A
C53          C58   1.422       .  A
C54          C55   1.406       .  A
C55          H65   1.083       .  S
C55          C56   1.398       .  A
C56          H66   1.083       .  S
C56          C57   1.406       .  A
C57          C58   1.421       .  A
C57          C64   1.414       .  A
C58          C61   1.426       .  A
C59          H67   1.083       .  S
C59          C60   1.397       .  A
C60          H68   1.083       .  S
C60          C61   1.404       .  A
C61          C62   1.418       .  A
C62        C1123   1.488       .  S
C62          C63   1.393       .  A
C63          H70   1.086       .  S
C63          C64   1.393       .  A
C64        C1135   1.479       .  S
C71        C1183   1.488       .  S
C71          C72   1.390       .  A
C71          C76   1.417       .  A
C72          H91   1.087       .  S
C72          C73   1.388       .  A
C73        C1114   1.474       .  S
C73          C74   1.408       .  A
C74          C75   1.421       .  A
C74          C81   1.403       .  A
C75          C76   1.427       .  A
C75          C80   1.419       .  A
C76          C77   1.403       .  A
C77          H87   1.081       .  S
C77          C78   1.393       .  A
C78          H88   1.082       .  S
C78          C79   1.407       .  A
C79          C80   1.418       .  A
C79          C86   1.411       .  A
C80          C83   1.424       .  A
C81          H89   1.083       .  S
C81          C82   1.395       .  A
C82          H90   1.082       .  S
C82          C83   1.407       .  A
C83          C84   1.419       .  A
C84        C1102   1.496       .  S
C84          C85   1.400       .  A
C85          H92   1.085       .  S
C85          C86   1.399       .  A
C86        C1087   1.480       .  S
O93         Mg95   2.136       .  S
O93        Mg101   2.160       .  S
O93         C128   1.234       .  S
C94         O107   1.234       .  S
C94         O131   1.268       .  A
C94         H133   1.081       .  S
Mg95        O124   2.166       .  S
Mg95        O139   2.341       .  S
Mg95        O106   2.301       .  S
Mg95       O1341   2.264       .  S
O96        Mg138   2.170       .  S
O96        Mg121   2.152       .  S
O96         C117   1.233       .  S
O97         C128   1.268       .  A
O97        Mg121   2.288       .  S
C98         O100   1.270       .  A
C98         O112   1.273       .  A
C98        C1063   1.485       .  S
O99         C127   1.268       .  A
O99        Mg101   2.292       .  S
O100       Mg132   2.247       .  S
Mg101       O107   2.170       .  S
Mg101       O115   2.279       .  S
Mg101       O103   2.299       .  S
C102        O140   1.273       .  A
C102        O108   1.281       .  A
C102       C1051   1.495       .  S
O103        C110   1.273       .  A
H104        C117   1.081       .  S
C105        O119   1.235       .  S
C105        O120   1.270       .  A
C105        H130   1.081       .  S
O106        C129   1.270       .  A
O107       Mg121   2.173       .  S
O108       Mg138   2.344       .  S
C109        O122   1.277       .  A
C109        O114   1.270       .  A
C109        C695   1.473       .  S
C110       O2549   1.268       .  A
C110       C3487   1.468       .  S
Mg111       O118   2.167       .  S
Mg111       O119   2.167       .  S
Mg111       O112   2.307       .  S
Mg111       O113   2.297       .  S
Mg111       O140   2.257       .  S
O113        C117   1.268       .  A
O114      Mg2533   2.293       .  S
O115        C134   1.276       .  A
O116        C136   1.273       .  A
O116      Mg1338   2.305   1_545  S
O118       Mg132   2.170       .  S
O118        C129   1.235       .  S
O119       Mg138   2.161       .  S
O120       Mg132   2.301       .  S
Mg121      O2526   2.295   1_455  S
Mg121      O2549   2.225       .  S
O122      Mg2550   2.289       .  S
H123        C128   1.081       .  S
O124       Mg132   2.150       .  S
O124        C127   1.234       .  S
H125        C127   1.081       .  S
H126        C129   1.081       .  S
O131       Mg138   2.298       .  S
Mg132      O1322   2.301       .  S
C134        O139   1.280       .  A
C134       C1150   1.502       .  S
O135        C136   1.275       .  A
O135      Mg1301   2.269   1_545  S
C136        C722   1.469       .  S
O137       C2522   1.268       .  A
O137      Mg2533   2.225       .  S
Mg138      O2534   2.293   1_455  S
O141       Mg143   2.149       .  S
O141       Mg149   2.154       .  S
O141        C176   1.236       .  S
C142        O155   1.233       .  S
C142        O179   1.267       .  A
C142        H181   1.081       .  S
Mg143       O172   2.166       .  S
Mg143       O187   2.313       .  S
Mg143       O183   2.270       .  S
Mg143       O154   2.287       .  S
O144       Mg186   2.173       .  S
O144       Mg169   2.150       .  S
O144        C165   1.235       .  S
O145        C176   1.270       .  A
O145       Mg169   2.303       .  S
C146        O148   1.269       .  A
C146        O160   1.270       .  A
C146       C1027   1.466       .  S
O147        C175   1.268       .  A
O147       Mg149   2.288       .  S
O148       Mg180   2.231       .  S
Mg149       O155   2.153       .  S
Mg149       O163   2.232       .  S
Mg149       O151   2.253       .  S
C150        O188   1.268       .  A
C150        O156   1.282       .  A
C150       C1015   1.494       .  S
O151        C158   1.266       .  A
H152        C165   1.081       .  S
C153        O167   1.236       .  S
C153        O168   1.270       .  A
C153        H178   1.081       .  S
O154        C177   1.265       .  A
O155       Mg169   2.163       .  S
O156       Mg186   2.354       .  S
C157        O162   1.275       .  A
C157       O1376   1.279       .  A
C157        C720   1.470       .  S
C158       O1391   1.273       .  A
C158       C2317   1.471       .  S
Mg159       O166   2.141       .  S
Mg159       O167   2.164       .  S
Mg159       O160   2.289       .  S
Mg159       O161   2.290       .  S
Mg159       O188   2.217       .  S
O161        C165   1.269       .  A
O162      Mg1375   2.309   1_545  S
O163        C182   1.265       .  A
O164        C184   1.274       .  A
O164       Mg180   2.307       .  S
O166       Mg180   2.163       .  S
O166        C177   1.232       .  S
O167       Mg186   2.161       .  S
O168       Mg180   2.301       .  S
Mg169      O1368   2.312       .  S
Mg169      O1391   2.276       .  S
O170       C1363   1.279       .  A
O170       Mg186   2.295       .  S
H171        C176   1.081       .  S
O172       Mg180   2.124       .  S
O172        C175   1.235       .  S
H173        C175   1.081       .  S
H174        C177   1.081       .  S
O179       Mg186   2.296       .  S
C182        O187   1.277       .  A
C182       C1042   1.493       .  S
O183        C184   1.274       .  A
C184        C688   1.467       .  S
O185       C1364   1.273   1_545  A
O185      Mg1375   2.280   1_545  S
C189       C1078   1.471       .  S
C189        C190   1.396       .  A
C189        C194   1.412       .  A
C190        H209   1.086       .  S
C190        C191   1.393       .  A
C191       C1039   1.484       .  S
C191        C192   1.409       .  A
C192        C193   1.424       .  A
C192        C199   1.401       .  A
C193        C194   1.415       .  A
C193        C198   1.415       .  A
C194        C195   1.409       .  A
C195        H205   1.083       .  S
C195        C196   1.400       .  A
C196        H206   1.083       .  S
C196        C197   1.403       .  A
C197        C198   1.426       .  A
C197        C204   1.418       .  A
C198        C201   1.416       .  A
C199        H207   1.082       .  S
C199        C200   1.387       .  A
C200        H208   1.081       .  S
C200        C201   1.406       .  A
C201        C202   1.403       .  A
C202       C1003   1.465       .  S
C202        C203   1.392       .  A
C203        H210   1.086       .  S
C203        C204   1.390       .  A
C204        C991   1.484       .  S
O211       Mg213   2.159       .  S
O211      Mg1425   2.157   1_545  S
O211        C246   1.236       .  S
C212        O225   1.234       .  S
C212        O249   1.270   1_556  A
C212        H251   1.081       .  S
Mg213      O1448   2.164   1_545  S
Mg213       O253   2.280       .  S
Mg213       O224   2.304       .  S
Mg213      O1463   2.289   1_545  S
O214       Mg239   2.157   1_554  S
O214      Mg1462   2.164   1_545  S
O214        C235   1.235       .  S
O215        C246   1.273       .  A
O215       Mg239   2.317       .  S
C216        O218   1.275   1_545  A
C216        O230   1.272       .  A
C216       C1099   1.499       .  S
O217        C245   1.269       .  A
O217       Mg219   2.299       .  S
O218      Mg1456   2.295       .  S
Mg219       O225   2.171       .  S
Mg219      O1417   2.164       .  S
Mg219       O233   2.291       .  S
Mg219       O221   2.299       .  S
C220        O258   1.271       .  A
C220        O226   1.273       .  A
C220       C1138   1.485       .  S
O221        C228   1.275       .  A
H222        C235   1.081       .  S
C223        O237   1.236       .  S
C223        O238   1.272       .  A
C223        H248   1.081       .  S
O224        C247   1.269   1_556  A
O225      Mg1445   2.154       .  S
O226      Mg1462   2.292   1_545  S
C227        O240   1.273       .  A
C227        O232   1.280   1_554  A
C227       C1854   1.479       .  S
C228        O255   1.273       .  A
C228        C970   1.501       .  S
Mg229       O236   2.155       .  S
Mg229      O1443   2.169   1_545  S
Mg229       O230   2.291       .  S
Mg229       O231   2.302       .  S
Mg229       O258   2.270       .  S
O231        C235   1.270       .  A
O232      Mg1445   2.338       .  S
O233        C252   1.274       .  A
O234        C254   1.276   1_554  A
O234      Mg1456   2.314   1_545  S
O236      Mg1456   2.157   1_545  S
O236        C247   1.234       .  S
O237       Mg256   2.166       .  S
O237      Mg1435   2.164       .  S
O238       Mg250   2.310       .  S
Mg239      O1431   2.149   1_545  S
Mg239      O1438   2.339   1_545  S
Mg239      O1461   2.290   1_545  S
O240       Mg256   2.297       .  S
H241        C246   1.081       .  S
O242       Mg250   2.152   1_556  S
O242      Mg1419   2.161       .  S
O242        C245   1.235       .  S
H243        C245   1.081       .  S
H244        C247   1.081       .  S
O249       Mg256   2.306       .  S
Mg250      O1442   2.155       .  S
Mg250      O1424   2.291       .  S
Mg250      O1440   2.316       .  S
C252        O257   1.274       .  A
C252        C982   1.487       .  S
O253        C254   1.271       .  A
C254       C1842   1.466       .  S
O255      Mg1445   2.285       .  S
Mg256      O1420   2.162       .  S
Mg256      O1432   2.294       .  S
O257      Mg1419   2.295       .  S
O259       Mg261   2.141       .  S
O259       Mg267   2.120       .  S
O259        C294   1.238       .  S
C260        O273   1.230       .  S
C260        O297   1.262       .  A
C260        H299   1.081       .  S
Mg261       O290   2.174       .  S
Mg261       O305   2.289       .  S
Mg261       O301   2.247       .  S
Mg261       O272   2.303   1_556  S
O262       Mg304   2.192       .  S
O262       Mg287   2.138   1_554  S
O262        C283   1.238       .  S
O263        C294   1.275       .  A
O263       Mg287   2.327       .  S
C264        O266   1.272       .  A
C264        O278   1.265       .  A
C264       C1126   1.491       .  S
O265        C293   1.276       .  A
O265       Mg267   2.319       .  S
O266       Mg298   2.334       .  S
Mg267       O273   2.126       .  S
Mg267       O281   2.226       .  S
Mg267       O269   2.272       .  S
C268        O306   1.265       .  A
C268        O274   1.268       .  A
C268       C1006   1.473       .  S
O269        C276   1.265       .  A
H270        C283   1.081       .  S
C271        O285   1.237       .  S
C271        O286   1.275       .  A
C271        H296   1.081       .  S
O272        C295   1.267       .  A
O273       Mg287   2.131       .  S
O274       Mg304   2.243       .  S
C275        O288   1.272       .  A
C275        O280   1.278   1_554  A
C275        C674   1.467       .  S
C276        O303   1.271       .  A
C276        C943   1.493       .  S
Mg277       O284   2.148       .  S
Mg277       O285   2.155       .  S
Mg277       O278   2.265       .  S
Mg277       O279   2.295       .  S
Mg277       O306   2.230       .  S
O279        C283   1.271       .  A
O280       Mg287   2.318       .  S
O281        C300   1.263       .  A
O282        C302   1.277   1_554  A
O282       Mg298   2.319       .  S
O284       Mg298   2.138       .  S
O284        C295   1.232       .  S
O285       Mg304   2.158       .  S
O286       Mg298   2.330       .  S
Mg287       O303   2.302       .  S
O288       Mg304   2.280       .  S
H289        C294   1.081       .  S
O290       Mg298   2.163   1_556  S
O290        C293   1.241       .  S
H291        C293   1.081       .  S
H292        C295   1.081       .  S
O297       Mg304   2.281   1_556  S
C300        O305   1.271       .  A
C300        C958   1.473       .  S
O301        C302   1.268       .  A
C302        C647   1.457       .  S
O307       Mg309   2.152       .  S
O307      Mg2727   2.136   1_455  S
O307        C342   1.238       .  S
C308        O321   1.234       .  S
C308        O345   1.269       .  A
C308        H347   1.081       .  S
Mg309      O2750   2.173   1_455  S
Mg309       O349   2.280   1_455  S
Mg309       O320   2.294       .  S
Mg309      O2765   2.338   1_455  S
O310       Mg335   2.155   1_556  S
O310      Mg2764   2.174   1_455  S
O310        C331   1.236       .  S
O311        C342   1.275       .  A
O311       Mg335   2.327       .  S
C312        O314   1.271       .  A
C312        O326   1.272       .  A
C312        C919   1.492       .  S
O313        C341   1.272       .  A
O313       Mg315   2.303       .  S
O314      Mg2758   2.256       .  S
Mg315       O321   2.166       .  S
Mg315      O2719   2.140       .  S
Mg315       O329   2.263       .  S
Mg315       O317   2.294       .  S
C316        O354   1.269       .  A
C316        O322   1.281       .  A
C316        C931   1.497       .  S
O317        C324   1.270       .  A
H318        C331   1.081       .  S
C319        O333   1.237       .  S
C319        O334   1.272       .  A
C319        H344   1.081       .  S
O320        C343   1.267   1_554  A
O321      Mg2747   2.144       .  S
O322      Mg2764   2.338   1_455  S
C323        O336   1.276       .  A
C323        O328   1.274   1_556  A
C323       C3052   1.474   1_556  S
C324        O351   1.268       .  A
C324       C1090   1.486       .  S
Mg325       O332   2.146       .  S
Mg325      O2745   2.150   1_455  S
Mg325       O326   2.293   1_455  S
Mg325       O327   2.299       .  S
Mg325       O354   2.251       .  S
O327        C331   1.270       .  A
O328      Mg2747   2.324       .  S
O329        C348   1.272       .  A
O330        C350   1.272   1_556  A
O330      Mg2758   2.301       .  S
O332      Mg2758   2.151   1_455  S
O332        C343   1.233       .  S
O333       Mg352   2.159       .  S
O333      Mg2737   2.151       .  S
O334       Mg346   2.304       .  S
Mg335      O2733   2.146   1_455  S
Mg335      O2740   2.325       .  S
Mg335      O2763   2.270       .  S
O336       Mg352   2.292       .  S
H337        C342   1.081       .  S
O338       Mg346   2.159   1_554  S
O338      Mg2721   2.172       .  S
O338        C341   1.237       .  S
H339        C341   1.081       .  S
H340        C343   1.081       .  S
O345       Mg352   2.304   1_554  S
Mg346      O2744   2.153       .  S
Mg346      O2726   2.258       .  S
Mg346      O2742   2.304       .  S
C348        O353   1.279       .  A
C348        C994   1.495       .  S
O349        C350   1.275       .  A
C350       C3084   1.463   1_554  S
O351      Mg2747   2.255       .  S
Mg352      O2722   2.171       .  S
Mg352      O2734   2.338       .  S
O353      Mg2721   2.339       .  S
O355       Mg357   2.166       .  S
O355       Mg363   2.144       .  S
O355        C390   1.234       .  S
C356        O369   1.236       .  S
C356        O393   1.272       .  A
C356        H395   1.081       .  S
Mg357       O386   2.156       .  S
Mg357       O401   2.323       .  S
Mg357       O397   2.279   1_545  S
Mg357       O368   2.308       .  S
O358       Mg400   2.155       .  S
O358       Mg383   2.149       .  S
O358        C379   1.236       .  S
O359        C390   1.271       .  A
O359       Mg383   2.311       .  S
C360        O374   1.269       .  A
C360       O1568   1.276   1_545  A
C360       C2080   1.484   1_545  S
O361        C389   1.271       .  A
O361       Mg363   2.308       .  S
O362       C1566   1.276       .  A
O362      Mg1600   2.306       .  S
Mg363       O369   2.191       .  S
Mg363       O377   2.304       .  S
Mg363       O365   2.284       .  S
C364        O402   1.273       .  A
C364        O370   1.270       .  A
C364        C883   1.498       .  S
O365        C372   1.272       .  A
H366        C379   1.081       .  S
C367        O381   1.234       .  S
C367        O382   1.269       .  A
C367        H392   1.081       .  S
O368        C391   1.271       .  A
O369       Mg383   2.179       .  S
O370       Mg400   2.295       .  S
C371        O384   1.266       .  A
C371        O376   1.280       .  A
C371        C736   1.467       .  S
C372        O399   1.275       .  A
C372        C907   1.478       .  S
Mg373       O380   2.180       .  S
Mg373       O381   2.142       .  S
Mg373       O374   2.260       .  S
Mg373       O375   2.307       .  S
Mg373       O402   2.298       .  S
O375        C379   1.271       .  A
O376       Mg383   2.342       .  S
O377        C396   1.273       .  A
O378        C398   1.280       .  A
O378      Mg1600   2.340       .  S
O380       Mg394   2.184       .  S
O380        C391   1.236       .  S
O381       Mg400   2.141       .  S
O382       Mg394   2.299       .  S
Mg383       O399   2.279       .  S
O384       Mg400   2.245       .  S
H385        C390   1.081       .  S
O386       Mg394   2.163       .  S
O386        C389   1.235       .  S
H387        C389   1.081   1_565  S
H388        C391   1.081       .  S
O393       Mg400   2.311       .  S
Mg394      O1568   2.307   1_545  S
Mg394      O1584   2.329   1_545  S
C396        O401   1.276       .  A
C396        C895   1.510       .  S
O397       C1604   1.271       .  A
C398       O1603   1.272       .  A
C398        C768   1.476       .  S
C403        C955   1.470       .  S
C403        C404   1.389       .  A
C403        C408   1.408       .  A
C404        H423   1.087       .  S
C404        C405   1.390       .  A
C405        C934   1.485       .  S
C405        C406   1.419       .  A
C406        C407   1.426       .  A
C406        C413   1.403       .  A
C407        C408   1.419       .  A
C407        C412   1.420       .  A
C408        C409   1.404       .  A
C409        H419   1.083       .  S
C409        C410   1.394       .  A
C410        H420   1.083       .  S
C410        C411   1.405       .  A
C411        C412   1.425       .  A
C411        C418   1.416       .  A
C412        C415   1.419       .  A
C413        H421   1.083       .  S
C413        C414   1.399       .  A
C414        H422   1.082       .  S
C414        C415   1.410       .  A
C415        C416   1.416       .  A
C416        C862   1.484       .  S
C416        C417   1.401       .  A
C417        H424   1.085       .  S
C417        C418   1.398       .  A
C418        C886   1.493       .  S
C425        C967   1.487       .  S
C425        C426   1.401       .  A
C425        C430   1.418       .  A
C426        H445   1.085       .  S
C426        C427   1.399       .  A
C427        C922   1.487       .  S
C427        C428   1.411       .  A
C428        C429   1.422       .  A
C428        C435   1.406       .  A
C429        C430   1.421       .  A
C429        C434   1.418       .  A
C430        C431   1.409       .  A
C431        H441   1.082       .  S
C431        C432   1.399       .  A
C432        H442   1.083       .  S
C432        C433   1.404       .  A
C433        C434   1.424       .  A
C433        C440   1.417       .  A
C434        C437   1.420       .  A
C435        H443   1.082   1_455  S
C435        C436   1.389       .  A
C436        H444   1.083   1_455  S
C436        C437   1.401       .  A
C437        C438   1.404       .  A
C438        C847   1.467       .  S
C438        C439   1.386       .  A
C439        H446   1.087       .  S
C439        C440   1.390       .  A
C440        C871   1.478       .  S
O447       Mg449   2.154       .  S
O447       Mg455   2.151       .  S
O447        C482   1.236       .  S
C448        O461   1.235       .  S
C448        O485   1.269       .  A
C448        H487   1.081       .  S
Mg449       O478   2.182       .  S
Mg449       O493   2.292       .  S
Mg449       O460   2.291       .  S
Mg449      O1695   2.273   1_545  S
O450       Mg492   2.179       .  S
O450       Mg475   2.135       .  S
O450        C471   1.235       .  S
O451        C482   1.272       .  A
O451       Mg475   2.315       .  S
C452        O454   1.278   1_545  A
C452        O466   1.267       .  A
C452        C823   1.492       .  S
O453        C481   1.271       .  A
O453       Mg455   2.301       .  S
O454       Mg486   2.316   1_565  S
Mg455       O461   2.171       .  S
Mg455       O469   2.297       .  S
Mg455       O457   2.303       .  S
C456        O494   1.271       .  A
C456        O462   1.275       .  A
C456        C835   1.492       .  S
O457        C464   1.275       .  A
H458        C471   1.081       .  S
C459        O473   1.234       .  S
C459        O474   1.268       .  A
C459        H484   1.081       .  S
O460        C483   1.267       .  A
O461       Mg475   2.153       .  S
O462       Mg492   2.296       .  S
C463        O476   1.271       .  A
C463        O468   1.279       .  A
C463        C743   1.469       .  S
C464        O491   1.273       .  A
C464        C859   1.495       .  S
Mg465       O472   2.151       .  S
Mg465       O473   2.159       .  S
Mg465       O466   2.242       .  S
Mg465       O467   2.287       .  S
Mg465       O494   2.279       .  S
O467        C471   1.268       .  A
O468      Mg2887   2.317   1_455  S
O469        C488   1.274       .  A
O470        C490   1.278       .  A
O470      Mg1692   2.311       .  S
O472       Mg486   2.180       .  S
O472        C483   1.233       .  S
O473       Mg492   2.138       .  S
O474       Mg486   2.292       .  S
Mg475       O491   2.279       .  S
Mg475      O2880   2.321       .  S
O476      Mg2904   2.279   1_455  S
H477        C482   1.081       .  S
O478       Mg486   2.154       .  S
O478        C481   1.236       .  S
H479        C481   1.081   1_565  S
H480        C483   1.081       .  S
O485       Mg492   2.301       .  S
Mg486      O1676   2.306   1_545  S
C488        O493   1.273       .  A
C488       C2017   1.489   1_545  S
O489        C490   1.271       .  A
O489      Mg1655   2.272       .  S
C490        C770   1.465       .  S
Mg492      O2888   2.277       .  S
O495       Mg497   2.148       .  S
O495       Mg503   2.162       .  S
O495        C530   1.236       .  S
C496        O509   1.233       .  S
C496        O533   1.267       .  A
C496        H535   1.081       .  S
Mg497       O526   2.165       .  S
Mg497       O541   2.325       .  S
Mg497       O537   2.288       .  S
Mg497       O508   2.292       .  S
O498       Mg540   2.158       .  S
O498       Mg523   2.145       .  S
O498        C519   1.234       .  S
O499        C530   1.270       .  A
O499       Mg523   2.297       .  S
C500        O502   1.269       .  A
C500        O514   1.267       .  A
C500        C787   1.467       .  S
O501        C529   1.268       .  A
O501       Mg503   2.285       .  S
O502       Mg534   2.241       .  S
Mg503       O509   2.145       .  S
Mg503       O517   2.221       .  S
Mg503       O505   2.246       .  S
C504        O542   1.269       .  A
C504        O510   1.280       .  A
C504        C799   1.499       .  S
O505        C512   1.266       .  A
H506        C519   1.081       .  S
C507        O521   1.237       .  S
C507        O522   1.272       .  A
C507        H532   1.081       .  S
O508        C531   1.266       .  A
O509       Mg523   2.163       .  S
O510       Mg540   2.347       .  S
C511        O524   1.277       .  A
C511        O516   1.273       .  A
C511        C744   1.463       .  S
C512       O2951   1.270       .  A
C512       C3262   1.464       .  S
Mg513       O520   2.150       .  S
Mg513       O521   2.166       .  S
Mg513       O514   2.265       .  S
Mg513       O515   2.289       .  S
Mg513       O542   2.234       .  S
O515        C519   1.267       .  A
O516      Mg2935   2.301   1_455  S
O517        C536   1.267       .  A
O518        C538   1.275       .  A
O518       Mg534   2.318       .  S
O520       Mg534   2.158       .  S
O520        C531   1.232       .  S
O521       Mg540   2.161       .  S
O522       Mg534   2.310       .  S
Mg523      O2928   2.299       .  S
Mg523      O2951   2.266       .  S
O524      Mg2952   2.283   1_455  S
H525        C530   1.081       .  S
O526       Mg534   2.130       .  S
O526        C529   1.235       .  S
H527        C529   1.081       .  S
H528        C531   1.081       .  S
O533       Mg540   2.300       .  S
C536        O541   1.278       .  A
C536        C775   1.486       .  S
O537        C538   1.277       .  A
C538        C732   1.472       .  S
O539       C2924   1.271       .  A
O539      Mg2935   2.271       .  S
Mg540      O2936   2.279       .  S
C543        C979   1.485       .  S
C543        C544   1.396       .  A
C543        C548   1.419       .  A
C544        H563   1.086       .  S
C544        C545   1.394       .  A
C545        C946   1.482       .  S
C545        C546   1.412       .  A
C546        C547   1.421       .  A
C546        C553   1.404       .  A
C547        C548   1.421       .  A
C547        C552   1.418       .  A
C548        C549   1.407       .  A
C549        H559   1.083       .  S
C549        C550   1.403       .  A
C550        H560   1.082       .  S
C550        C551   1.407       .  A
C551        C552   1.422       .  A
C551        C558   1.419       .  A
C552        C555   1.420       .  A
C553        H561   1.082       .  S
C553        C554   1.394       .  A
C554        H562   1.082       .  S
C554        C555   1.405       .  A
C555        C556   1.412       .  A
C556        C778   1.481       .  S
C556        C557   1.396       .  A
C557        H564   1.086       .  S
C557        C558   1.397       .  A
C558        C814   1.488       .  S
C565       C1162   1.492   1_655  S
C565        C566   1.400   1_655  A
C565        C570   1.417       .  A
C566        H585   1.085       .  S
C566        C567   1.400       .  A
C567       C1054   1.491       .  S
C567        C568   1.420   1_455  A
C568        C569   1.422       .  A
C568        C575   1.408   1_655  A
C569        C570   1.423       .  A
C569       C2986   1.423       .  A
C570        C571   1.406       .  A
C571        H581   1.083       .  S
C571       C2984   1.396       .  A
C572        H582   1.083       .  S
C572        C573   1.405       .  A
C572       C2983   1.396       .  A
C573        C574   1.422       .  A
C573        C580   1.414       .  A
C574        C577   1.425       .  A
C574       C2981   1.423       .  A
C575        H583   1.082       .  S
C575       C2988   1.398       .  A
C576        H584   1.083       .  S
C576        C577   1.405       .  A
C576       C2987   1.397       .  A
C577        C578   1.420       .  A
C578        C802   1.491       .  S
C578        C579   1.396       .  A
C579        H586   1.086       .  S
C579        C580   1.393       .  A
C580        C838   1.482       .  S
C587       C1030   1.470       .  S
C587        C588   1.387       .  A
C587        C592   1.405       .  A
C588        H607   1.087       .  S
C588        C589   1.392       .  A
C589       C1174   1.473       .  S
C589        C590   1.412       .  A
C590        C591   1.421       .  A
C590        C597   1.406       .  A
C591        C592   1.421       .  A
C591        C596   1.412       .  A
C592        C593   1.403       .  A
C593        H603   1.083       .  S
C593        C594   1.390       .  A
C594        H604   1.083       .  S
C594        C595   1.403       .  A
C595        C596   1.420       .  A
C595        C602   1.403       .  A
C596        C599   1.423       .  A
C597        H605   1.083       .  S
C597        C598   1.398       .  A
C598        H606   1.083       .  S
C598        C599   1.404       .  A
C599        C600   1.412       .  A
C600        C910   1.475       .  S
C600        C601   1.389       .  A
C601        H608   1.087       .  S
C601        C602   1.387       .  A
C602        C790   1.466       .  S
C609       C1066   1.484       .  S
C609        C610   1.395       .  A
C609        C614   1.416       .  A
C610        H629   1.086       .  S
C610        C611   1.392       .  A
C611       C1018   1.491       .  S
C611        C612   1.417       .  A
C612        C613   1.426       .  A
C612        C619   1.401       .  A
C613        C614   1.420       .  A
C613       C1824   1.425       .  A
C614        C615   1.406       .  A
C615        H625   1.083       .  S
C615       C1822   1.398       .  A
C616        H626   1.082       .  S
C616        C617   1.406       .  A
C616       C1821   1.398       .  A
C617        C618   1.427       .  A
C617        C624   1.424       .  A
C618        C621   1.420       .  A
C618       C1819   1.425       .  A
C619        H627   1.083       .  S
C619       C1826   1.392       .  A
C620        H628   1.081       .  S
C620        C621   1.409       .  A
C620       C1825   1.392       .  A
C621        C622   1.417       .  A
C622        C826   1.491       .  S
C622        C623   1.401       .  A
C623        H630   1.085       .  S
C623        C624   1.403       .  A
C624        C898   1.507       .  S
O631       Mg639   2.173   1_554  S
O631      Mg3045   2.161   1_455  S
O631        C666   1.233       .  S
C632        O645   1.235       .  S
C632        O669   1.270       .  A
C632        H671   1.081       .  S
Mg633       O662   2.169   1_554  S
Mg633      O3043   2.163       .  S
Mg633       O677   2.321       .  S
Mg633       O673   2.275       .  S
Mg633       O644   2.301       .  S
O634       Mg676   2.180   1_554  S
O634       Mg659   2.189       .  S
O634        C655   1.234       .  S
O635       C1872   1.267       .  A
O635       Mg659   2.296   1_565  S
C636        O638   1.274       .  A
C636       O1856   1.272       .  A
C636       C1460   1.468       .  S
O637       C3077   1.269       .  A
O637       Mg639   2.304   1_655  S
O638       Mg670   2.284       .  S
Mg639      O1851   2.152       .  S
Mg639       O653   2.255       .  S
Mg639       O641   2.311   1_556  S
C640        O646   1.278   1_554  A
C640       O3090   1.270   1_455  A
C640       C2735   1.474   1_554  S
O641       C1854   1.273       .  A
H642        C655   1.081       .  S
C643        O657   1.234       .  S
C643       O1864   1.268       .  A
C643        H668   1.081       .  S
O644        C667   1.269       .  A
O645       Mg659   2.172   1_556  S
O645      Mg1845   2.158   1_545  S
O646       Mg676   2.334       .  S
C647        O660   1.271       .  A
C647        O652   1.273       .  A
C648        O675   1.276   1_565  A
C648       O1847   1.273       .  A
C648       C1433   1.481       .  S
Mg649       O657   2.167   1_554  S
Mg649      O1862   2.160   1_545  S
Mg649       O650   2.296   1_554  S
Mg649       O651   2.304       .  S
Mg649       O678   2.274       .  S
O650       C1842   1.271       .  A
O651       C3067   1.270       .  A
O652       Mg659   2.300   1_556  S
O653       C3084   1.269   1_455  A
O654        C674   1.274       .  A
O654       Mg670   2.315   1_554  S
C655       O3063   1.270       .  A
O656       Mg670   2.170   1_554  S
O656      Mg1855   2.158       .  S
O656        C667   1.234       .  S
O657      Mg3088   2.150       .  S
O658       C1849   1.268       .  A
O658       Mg670   2.295       .  S
Mg659       O675   2.310       .  S
O660       Mg676   2.251       .  S
H661        C666   1.081       .  S
O662       Mg670   2.176       .  S
O662        C665   1.234       .  S
H663        C665   1.081       .  S
H664        C667   1.081       .  S
C665       O3049   1.269       .  A
C666       O1841   1.267       .  A
O669       Mg676   2.302       .  S
C672        O677   1.277   1_556  A
C672       O3065   1.269       .  A
C672       C2762   1.466   1_556  S
O673        C674   1.274       .  A
Mg676      O3069   2.150   1_455  S
O678       C3052   1.270       .  A
O679       Mg681   2.164       .  S
O679       Mg687   2.191       .  S
O679        C714   1.233       .  S
C680        O693   1.233       .  S
C680        O717   1.267       .  A
C680        H719   1.081       .  S
Mg681       O710   2.175       .  S
Mg681       O725   2.306       .  S
Mg681       O721   2.287       .  S
Mg681       O692   2.293       .  S
O682       Mg724   2.172       .  S
O682       Mg707   2.151       .  S
O682        C703   1.233       .  S
O683        C714   1.267       .  A
O683       Mg707   2.289       .  S
C684        O686   1.270       .  A
C684        O698   1.277       .  A
O685        C713   1.266       .  A
O685       Mg687   2.289       .  S
O686       Mg718   2.274       .  S
Mg687       O693   2.153       .  S
Mg687       O701   2.284       .  S
Mg687       O689   2.299       .  S
C688        O726   1.275       .  A
C688        O694   1.275       .  A
O689        C696   1.275       .  A
H690        C703   1.081       .  S
C691        O705   1.234       .  S
C691        O706   1.269       .  A
C691        H716   1.081       .  S
O692        C715   1.267       .  A
O693       Mg707   2.185       .  S
O694       Mg724   2.303       .  S
C695        O708   1.277       .  A
C695        O700   1.268       .  A
C696        O723   1.267       .  A
Mg697       O704   2.152       .  S
Mg697       O705   2.190       .  S
Mg697       O698   2.316       .  S
Mg697       O699   2.293       .  S
Mg697       O726   2.277       .  S
O699        C703   1.267       .  A
O700       Mg707   2.267       .  S
O701        C720   1.276       .  A
O702        C722   1.272       .  A
O702       Mg718   2.284       .  S
O704       Mg718   2.178       .  S
O704        C715   1.233       .  S
O705       Mg724   2.176       .  S
O706       Mg718   2.297       .  S
Mg707       O723   2.254       .  S
O708       Mg724   2.308       .  S
H709        C714   1.081       .  S
O710       Mg718   2.153       .  S
O710        C713   1.232       .  S
H711        C713   1.081       .  S
H712        C715   1.081       .  S
O717       Mg724   2.295       .  S
C720        O725   1.275       .  A
O721        C722   1.275       .  A
O727       Mg729   2.158       .  S
O727       Mg735   2.166       .  S
O727        C762   1.233       .  S
C728        O741   1.233       .  S
C728        O765   1.267       .  A
C728        H767   1.081       .  S
Mg729       O758   2.181       .  S
Mg729       O773   2.304       .  S
Mg729       O769   2.269       .  S
Mg729       O740   2.310       .  S
O730       Mg772   2.185       .  S
O730       Mg755   2.148       .  S
O730        C751   1.234       .  S
O731        C762   1.268       .  A
O731       Mg755   2.299       .  S
C732        O734   1.272       .  A
C732        O746   1.275       .  A
O733        C761   1.269       .  A
O733       Mg735   2.302       .  S
O734       Mg766   2.293       .  S
Mg735       O741   2.170       .  S
Mg735       O749   2.313       .  S
Mg735       O737   2.313       .  S
C736        O774   1.275       .  A
C736        O742   1.269       .  A
O737        C744   1.278       .  A
H738        C751   1.081       .  S
C739        O753   1.234       .  S
C739        O754   1.270       .  A
C739        H764   1.081       .  S
O740        C763   1.271       .  A
O741       Mg755   2.178       .  S
O742       Mg772   2.282       .  S
C743        O756   1.271       .  A
C743        O748   1.271       .  A
C744        O771   1.269       .  A
Mg745       O752   2.184       .  S
Mg745       O753   2.161       .  S
Mg745       O746   2.313       .  S
Mg745       O747   2.299       .  S
Mg745       O774   2.300       .  S
O747        C751   1.269       .  A
O748       Mg755   2.278       .  S
O749        C768   1.277       .  A
O750        C770   1.274       .  A
O750       Mg766   2.294       .  S
O752       Mg766   2.162       .  S
O752        C763   1.235       .  S
O753       Mg772   2.170       .  S
O754       Mg766   2.312       .  S
Mg755       O771   2.260       .  S
O756       Mg772   2.294       .  S
H757        C762   1.081       .  S
O758       Mg766   2.165       .  S
O758        C761   1.234       .  S
H759        C761   1.081       .  S
H760        C763   1.081       .  S
O765       Mg772   2.294       .  S
C768        O773   1.272       .  A
O769        C770   1.269       .  A
C775        C776   1.412       .  A
C775        C780   1.412       .  A
C776        H785   1.083       .  S
C776        C777   1.400       .  A
C777        C778   1.405       .  A
C777        S781   1.807       .  S
C778        C779   1.405       .  A
C779        H786   1.084       .  S
C779        C780   1.402       .  A
C780        S782   1.802       .  S
S781        H784   1.407       .  S
S782        H783   1.407       .  S
C787        C788   1.403       .  A
C787        C792   1.412       .  A
C788        H797   1.084       .  S
C788        C789   1.393       .  A
C789        C790   1.407       .  A
C789        S793   1.803       .  S
C790        C791   1.402       .  A
C791        H798   1.084       .  S
C791        C792   1.396       .  A
C792        S794   1.800       .  S
S793        H796   1.405       .  S
S794        H795   1.401       .  S
C799        C800   1.412       .  A
C799        C804   1.414       .  A
C800        H809   1.080       .  S
C800        C801   1.404       .  A
C801        C802   1.408       .  A
C801        S805   1.808       .  S
C802       C3215   1.409       .  A
C803        H810   1.084       .  S
C803       C3214   1.409   1_455  A
C803       C3216   1.406       .  A
C804       C3215   1.405       .  A
C804       S3218   1.802       .  S
S805        H808   1.407       .  S
S806       C3216   1.802       .  S
S806        H807   1.408       .  S
C811       C1694   1.491       .  S
C811        C812   1.403       .  A
C811        C816   1.421       .  A
C812        H821   1.084       .  S
C812        C813   1.403       .  A
C813        C814   1.417       .  A
C813        S817   1.805       .  S
C814        C815   1.400       .  A
C815        H822   1.084       .  S
C815        C816   1.403       .  A
C816       S2024   1.803       .  S
S817        H820   1.406       .  S
S818       C2022   1.803       .  S
S818        H819   1.407   1_565  S
C823        C824   1.406   1_545  A
C823        C828   1.423       .  A
C824        H833   1.083       .  S
C824        C825   1.404       .  A
C825        C826   1.416       .  A
C825       S2035   1.803       .  S
C826        C827   1.399   1_565  A
C827        H834   1.084       .  S
C827        C828   1.395       .  A
C828        S830   1.806       .  S
S829       C2031   1.803       .  S
S829        H832   1.407       .  S
S830        H831   1.408       .  S
C835        C836   1.409       .  A
C835        C840   1.419       .  A
C836        H845   1.084       .  S
C836        C837   1.399       .  A
C837        C838   1.409       .  A
C837        S841   1.804       .  S
C838        C839   1.403       .  A
C839        H846   1.084       .  S
C839        C840   1.403       .  A
C840        S842   1.801       .  S
S841        H844   1.405       .  S
S842        H843   1.407       .  S
C847        C848   1.402       .  A
C847        C852   1.408   1_455  A
C848        H857   1.084       .  S
C848        C849   1.396       .  A
C849        C850   1.410   1_455  A
C849       S3265   1.803       .  S
C850       C2924   1.464       .  S
C850        C851   1.403       .  A
C851        H858   1.084       .  S
C851        C852   1.393       .  A
C852        S854   1.803       .  S
S853       C3261   1.804       .  S
S853        H856   1.407       .  S
S854        H855   1.405       .  S
C859        C860   1.411       .  A
C859       C3276   1.419       .  A
C860        H869   1.084       .  S
C860       C3273   1.398       .  A
C861        C862   1.410       .  A
C861       C3272   1.398   1_455  A
C861        S865   1.805       .  S
C862        C863   1.403       .  A
C863        H870   1.084       .  S
C863        C864   1.402       .  A
C864       C3271   1.420   1_455  A
C864        S866   1.802       .  S
S865        H868   1.405       .  S
S866       H3279   1.408       .  S
H867       S3278   1.408       .  S
C871        C872   1.407       .  A
C871        C876   1.411       .  A
C872        H881   1.084       .  S
C872        C873   1.401       .  A
C873        C874   1.411       .  A
C873        S877   1.799       .  S
C874       C1566   1.482       .  S
C874       C2081   1.407       .  A
C875        H882   1.084       .  S
C875       C2080   1.408   1_545  A
C875       C2082   1.399   1_545  A
C876       C2081   1.399       .  A
C876       S2084   1.804       .  S
S877        H880   1.407       .  S
S878       C2082   1.803   1_545  S
S878        H879   1.402   1_545  S
C883        C884   1.409       .  A
C883        C888   1.420       .  A
C884        H893   1.084       .  S
C884        C885   1.404       .  A
C885        C886   1.414       .  A
C885        S889   1.805       .  S
C886        C887   1.403       .  A
C887        H894   1.084       .  S
C887        C888   1.405       .  A
C888        S890   1.803       .  S
S889        H892   1.405       .  S
S890        H891   1.407       .  S
C895        C896   1.410   1_545  A
C895        C900   1.422       .  A
C896        H905   1.083       .  S
C896        C897   1.405       .  A
C897        C898   1.417       .  A
C897        S901   1.804       .  S
C898        C899   1.406   1_565  A
C899        H906   1.083       .  S
C899        C900   1.409       .  A
C900        S902   1.800       .  S
S901        H904   1.407       .  S
S902        H903   1.408       .  S
C907        C908   1.404       .  A
C907        C912   1.415       .  A
C908        H917   1.083       .  S
C908        C909   1.401       .  A
C909        C910   1.409       .  A
C909        S913   1.807       .  S
C910        C911   1.402       .  A
C911        H918   1.084       .  S
C911        C912   1.400       .  A
C912        S914   1.803       .  S
S913        H916   1.407       .  S
S914        H915   1.407       .  S
C919        C920   1.409       .  A
C919        C924   1.419       .  A
C920        H929   1.083       .  S
C920        C921   1.399   1_655  A
C921        C922   1.410       .  A
C921        S925   1.804       .  S
C922        C923   1.403       .  A
C923        H930   1.084       .  S
C923        C924   1.401   1_455  A
C924       S3338   1.803       .  S
S925        H928   1.407       .  S
S926       C3336   1.803       .  S
S926        H927   1.408       .  S
C931        C932   1.408       .  A
C931        C936   1.424       .  A
C932        H941   1.083       .  S
C932        C933   1.401       .  A
C933        C934   1.412       .  A
C933        S937   1.804       .  S
C934        C935   1.400       .  A
C935        H942   1.083       .  S
C935        C936   1.407       .  A
C936        S938   1.810       .  S
S937        H940   1.407       .  S
S938        H939   1.406       .  S
C943        C944   1.413       .  A
C943        C948   1.416       .  A
C944        H953   1.083       .  S
C944        C945   1.398       .  A
C945        C946   1.407       .  A
C945        S949   1.805       .  S
C946        C947   1.404       .  A
C947        H954   1.083       .  S
C947        C948   1.404       .  A
C948        S950   1.809       .  S
S949        H952   1.405       .  S
S950        H951   1.407       .  S
C955        C956   1.401       .  A
C955        C960   1.408       .  A
C956        H965   1.085       .  S
C956        C957   1.395       .  A
C957        C958   1.415       .  A
C957        S961   1.805       .  S
C958        C959   1.404       .  A
C959        H966   1.084       .  S
C959        C960   1.396       .  A
C960        S962   1.803       .  S
S961        H964   1.407       .  S
S962        H963   1.406       .  S
C967        C968   1.403       .  A
C967        C972   1.410       .  A
C968        H977   1.083       .  S
C968        C969   1.406       .  A
C969        C970   1.421       .  A
C969        S973   1.810       .  S
C970        C971   1.413       .  A
C971       H2184   1.083       .  S
C971        C972   1.400       .  A
C972        S974   1.806       .  S
S973        H976   1.407       .  S
S974        H975   1.405       .  S
H978       C2177   1.083       .  S
C979        C980   1.400       .  A
C979        C984   1.416       .  A
C980        H989   1.084       .  S
C980        C981   1.402       .  A
C981        C982   1.420       .  A
C981       S2191   1.803       .  S
C982        C983   1.403       .  A
C983        H990   1.084       .  S
C983        C984   1.402       .  A
C984        S986   1.805       .  S
S985       C2187   1.803   1_545  S
S985        H988   1.407       .  S
S986        H987   1.406       .  S
C991        C992   1.404       .  A
C991        C996   1.412       .  A
C992       H1001   1.084       .  S
C992        C993   1.405       .  A
C993        C994   1.419       .  A
C993       S3409   1.802       .  S
C994        C995   1.407       .  A
C995       H1002   1.084       .  S
C995        C996   1.401       .  A
C996        S998   1.804       .  S
S997       C3405   1.802   1_455  S
S997       H1000   1.407       .  S
S998        H999   1.405       .  S
C1003      C1004   1.398       .  A
C1003      C1008   1.408       .  A
C1004      H1013   1.084       .  S
C1004      C1005   1.392       .  A
C1005      C1006   1.415       .  A
C1005      S1009   1.798       .  S
C1006      C1007   1.405       .  A
C1007      H1014   1.083       .  S
C1007      C1008   1.388       .  A
C1008      S1010   1.805       .  S
S1009      H1012   1.408       .  S
S1010      H1011   1.407       .  S
C1015      C1016   1.412       .  A
C1015      C1020   1.412       .  A
C1016      H1025   1.082       .  S
C1016      C1017   1.401       .  A
C1017      C1018   1.409       .  A
C1017      S1021   1.808       .  S
C1018      C2225   1.410       .  A
C1019      H1026   1.084       .  S
C1019      C2224   1.411       .  A
C1019      C2226   1.406       .  A
C1020      C2225   1.405       .  A
C1020      S2228   1.802       .  S
S1021      H1024   1.407       .  S
S1022      C2226   1.802       .  S
S1022      H1023   1.408       .  S
C1027      C1028   1.403       .  A
C1027      C1032   1.410       .  A
C1028      H1037   1.084       .  S
C1028      C1029   1.392       .  A
C1029      C1030   1.407       .  A
C1029      S1033   1.804       .  S
C1030      C1031   1.405       .  A
C1031      H1038   1.084       .  S
C1031      C1032   1.399       .  A
C1032      S1034   1.801       .  S
S1033      H1036   1.405       .  S
S1034      H1035   1.404       .  S
C1039      C1040   1.398       .  A
C1039      C1044   1.410       .  A
C1040      H1049   1.083       .  S
C1040      C1041   1.404       .  A
C1041      C1042   1.425       .  A
C1041      S1045   1.811       .  S
C1042      C1043   1.407       .  A
C1043      H1050   1.084       .  S
C1043      C1044   1.398       .  A
C1044      S1046   1.804       .  S
S1045      H1048   1.407       .  S
S1046      H1047   1.407       .  S
C1051      C1052   1.410       .  A
C1051      C1056   1.416   1_455  A
C1052      H1061   1.082       .  S
C1052      C1053   1.400       .  A
C1053      C1054   1.410       .  A
C1053      S1057   1.805       .  S
C1054      C1055   1.407   1_455  A
C1055      H1062   1.084       .  S
C1055      C1056   1.407       .  A
C1056      S1058   1.802       .  S
S1057      H1060   1.405       .  S
S1058      H1059   1.407       .  S
C1063      C1064   1.406       .  A
C1063      C1068   1.416       .  A
C1064      H1073   1.084       .  S
C1064      C1065   1.394       .  A
C1065      C1066   1.411       .  A
C1065      S1069   1.806       .  S
C1066      C1067   1.404       .  A
C1067      H1074   1.083       .  S
C1067      C1068   1.408       .  A
C1068      S1070   1.806       .  S
S1069      H1072   1.407       .  S
S1070      H1071   1.407       .  S
C1075      C2522   1.470       .  S
C1075      C1076   1.402       .  A
C1075      C1080   1.417       .  A
C1076      H1085   1.084       .  S
C1076      C1077   1.400       .  A
C1077      C1078   1.413       .  A
C1077      S1081   1.802       .  S
C1078      C1079   1.397       .  A
C1079      H1086   1.085       .  S
C1079      C1080   1.392       .  A
C1080      S3494   1.806       .  S
S1081      H1084   1.404       .  S
S1082      C3492   1.806       .  S
S1082      H1083   1.407   1_655  S
C1087      C1088   1.402       .  A
C1087      C1092   1.411       .  A
C1088      H1097   1.083       .  S
C1088      C1089   1.403       .  A
C1089      C1090   1.415       .  A
C1089      S1093   1.807       .  S
C1090      C1091   1.408       .  A
C1091      H1098   1.084       .  S
C1091      C1092   1.398       .  A
C1092      S1094   1.807       .  S
S1093      H1096   1.407       .  S
S1094      H1095   1.404       .  S
C1099      C1100   1.409       .  A
C1099      C1104   1.422       .  A
C1100      H2315   1.083       .  S
C1100      C1101   1.403       .  A
C1101      C1102   1.414       .  A
C1101      S2311   1.805       .  S
C1102      C1103   1.402       .  A
C1103      H1110   1.083       .  S
C1103      C1104   1.406       .  A
C1104      S1106   1.810       .  S
S1105      C2307   1.804       .  S
S1105      H2314   1.407       .  S
S1106      H1107   1.407       .  S
H1108      S2311   1.407       .  S
H1109      C2306   1.083       .  S
C1111      C1364   1.471   1_545  S
C1111      C1112   1.405   1_545  A
C1111      C2322   1.411       .  A
C1112      H1121   1.083       .  S
C1112      C1113   1.402   1_565  A
C1113      C1114   1.407       .  A
C1113      S1117   1.804   1_545  S
C1114      C1115   1.404       .  A
C1115      H1122   1.084       .  S
C1115      C2322   1.395       .  A
C1116      C2317   1.411       .  A
C1116      C2321   1.394       .  A
C1116      S1118   1.804       .  S
S1117      H1120   1.407       .  S
S1118      H1119   1.407       .  S
C1123      C1124   1.406       .  A
C1123      C1128   1.411       .  A
C1124      H1133   1.083       .  S
C1124      C1125   1.410       .  A
C1125      C1126   1.415       .  A
C1125      S1129   1.799       .  S
C1126      C1127   1.406       .  A
C1127      H1134   1.083       .  S
C1127      C1128   1.398       .  A
C1128      S1130   1.807       .  S
S1129      H1132   1.407       .  S
S1130      H1131   1.405       .  S
C1135      C1136   1.399       .  A
C1135      C1140   1.412       .  A
C1136      H1145   1.083       .  S
C1136      C1137   1.403       .  A
C1137      C1138   1.419       .  A
C1137      S1141   1.809   1_545  S
C1138      C1139   1.404       .  A
C1139      H1146   1.084       .  S
C1139      C1140   1.399       .  A
C1140      S1142   1.803       .  S
S1141      H1144   1.407       .  S
S1142      H1143   1.405       .  S
C1147      C1148   1.407       .  A
C1147      C2358   1.413       .  A
C1148      H1157   1.084       .  S
C1148      C1149   1.407       .  A
C1149      C2356   1.418       .  A
C1149      S1153   1.803       .  S
C1150      C1151   1.410       .  A
C1150      C2355   1.419       .  A
C1151      H1158   1.083       .  S
C1151      C1152   1.402       .  A
C1152      C2353   1.414       .  A
C1152      S1154   1.804       .  S
S1153      H1156   1.408       .  S
S1154      H1155   1.406       .  S
C1159      C1160   1.406       .  A
C1159      C1164   1.416   1_455  A
C1160      H1169   1.082       .  S
C1160      C1161   1.401       .  A
C1161      C1162   1.414       .  A
C1161      S1165   1.804       .  S
C1162      C1163   1.405   1_455  A
C1163      H1170   1.083       .  S
C1163      C1164   1.409       .  A
C1164      S1166   1.807       .  S
S1165      H1168   1.401       .  S
S1166      H1167   1.407       .  S
C1171      C1172   1.404       .  A
C1171      C1176   1.417       .  A
C1172      H1181   1.084       .  S
C1172      C1173   1.396       .  A
C1173      C1174   1.410       .  A
C1173      S1177   1.804       .  S
C1174      C1175   1.400       .  A
C1175      H1182   1.084       .  S
C1175      C1176   1.398       .  A
C1176      S1178   1.802       .  S
S1177      H1180   1.407       .  S
S1178      H1179   1.407       .  S
C1183      C1184   1.398       .  A
C1183      C1188   1.416       .  A
C1184      H3605   1.083       .  S
C1184      C3597   1.399       .  A
C1185      C3596   1.398   1_455  A
C1185      C3598   1.424       .  A
C1185      S1189   1.800       .  S
C1186      C2418   1.494       .  S
C1186      C1187   1.404       .  A
C1186      C3597   1.423       .  A
C1187      H1194   1.082       .  S
C1187      C1188   1.402       .  A
C1188      S1190   1.808       .  S
S1189      H1192   1.408       .  S
S1190      H1191   1.407       .  S
H1193      C3596   1.084   1_455  S
C1195      C1196   1.406       .  A
C1195      C1200   1.418       .  A
C1196      H1205   1.084       .  S
C1196      C1197   1.406       .  A
C1197      C1198   1.414       .  A
C1197      S1201   1.803       .  S
C1198      C1199   1.398       .  A
C1199      H1206   1.085       .  S
C1199      C1200   1.396       .  A
C1200      S1202   1.801       .  S
S1201      H1204   1.405       .  S
S1202      H1203   1.404       .  S
O1207     Mg1209   2.144       .  S
O1207     Mg1215   2.150       .  S
O1207      C1242   1.234       .  S
C1208      O1221   1.235       .  S
C1208      O1245   1.269       .  A
C1208      H1247   1.081       .  S
Mg1209     O1238   2.168       .  S
Mg1209     O1253   2.302       .  S
Mg1209     O1249   2.256   1_455  S
Mg1209     O1220   2.308       .  S
O1210     Mg1252   2.162       .  S
O1210     Mg1235   2.140       .  S
O1210      C1231   1.237       .  S
O1211      C1242   1.268       .  A
O1211     Mg1235   2.297       .  S
C1212      O3626   1.276   1_455  A
C1212      O1226   1.269       .  A
C1212      C4804   1.494       .  S
O1213      C1241   1.270       .  A
O1213     Mg1215   2.300       .  S
O1214      C3624   1.276       .  A
O1214     Mg3658   2.295       .  S
Mg1215     O1221   2.169       .  S
Mg1215     O1229   2.284       .  S
Mg1215     O1217   2.262       .  S
C1216      O1254   1.270       .  A
C1216      O1222   1.269       .  A
C1216      C2401   1.484       .  S
O1217      C1224   1.269       .  A
H1218      C1231   1.081       .  S
C1219      O1233   1.234       .  S
C1219      O1234   1.269       .  A
C1219      H1244   1.081       .  S
O1220      C1243   1.270       .  A
O1221     Mg1235   2.184       .  S
O1222     Mg1252   2.292       .  S
C1223      O1236   1.271       .  A
C1223      O1228   1.277       .  A
C1223      C1890   1.472       .  S
C1224      O1251   1.275       .  A
C1224      C2377   1.476       .  S
Mg1225     O1232   2.177       .  S
Mg1225     O1233   2.140       .  S
Mg1225     O1226   2.278       .  S
Mg1225     O1227   2.311       .  S
Mg1225     O1254   2.281       .  S
O1227      C1231   1.272       .  A
O1228     Mg1235   2.311       .  S
O1229      C1248   1.273       .  A
O1230      C1250   1.277       .  A
O1230     Mg3658   2.307       .  S
O1232     Mg1246   2.174       .  S
O1232      C1243   1.235       .  S
O1233     Mg1252   2.165       .  S
O1234     Mg1246   2.306       .  S
Mg1235     O1251   2.280       .  S
O1236     Mg1252   2.282       .  S
H1237      C1242   1.081       .  S
O1238     Mg1246   2.146       .  S
O1238      C1241   1.235       .  S
H1239      C1241   1.081   1_655  S
H1240      C1243   1.081       .  S
O1245     Mg1252   2.297       .  S
Mg1246     O3626   2.297   1_455  S
Mg1246     O3642   2.303   1_455  S
C1248      O1253   1.273       .  A
C1248      C2365   1.491       .  S
O1249      C3662   1.268       .  A
C1250      O3661   1.269       .  A
C1250      C1902   1.466       .  S
C1255      C2353   1.497       .  S
C1255      C1256   1.400       .  A
C1255      C1260   1.421       .  A
C1256      H1275   1.085       .  S
C1256      C1257   1.400       .  A
C1257      C2404   1.485       .  S
C1257      C1258   1.416       .  A
C1258      C1259   1.420       .  A
C1258      C1265   1.408       .  A
C1259      C1260   1.425       .  A
C1259      C1264   1.423       .  A
C1260      C1261   1.406       .  A
C1261      H1271   1.083       .  S
C1261      C1262   1.397       .  A
C1262      H1272   1.083       .  S
C1262      C1263   1.406       .  A
C1263      C1264   1.421       .  A
C1263      C1270   1.414       .  A
C1264      C1267   1.426       .  A
C1265      H1273   1.083       .  S
C1265      C1266   1.398       .  A
C1266      H1274   1.083       .  S
C1266      C1267   1.404       .  A
C1267      C1268   1.419       .  A
C1268      C2329   1.490       .  S
C1268      C1269   1.393       .  A
C1269      H1276   1.086       .  S
C1269      C1270   1.394       .  A
C1270      C2341   1.480       .  S
C1277      C2389   1.486       .  S
C1277      C1278   1.389       .  A
C1277      C1282   1.416       .  A
C1278      H1297   1.087       .  S
C1278      C1279   1.388       .  A
C1279      C2320   1.473       .  S
C1279      C1280   1.408       .  A
C1280      C1281   1.421       .  A
C1280      C1287   1.403       .  A
C1281      C1282   1.427       .  A
C1281      C1286   1.419       .  A
C1282      C1283   1.403       .  A
C1283      H1293   1.082       .  S
C1283      C1284   1.394       .  A
C1284      H1294   1.082       .  S
C1284      C1285   1.407       .  A
C1285      C1286   1.419       .  A
C1285      C1292   1.411       .  A
C1286      C1289   1.424       .  A
C1287      H1295   1.083       .  S
C1287      C1288   1.394       .  A
C1288      H1296   1.082       .  S
C1288      C1289   1.407       .  A
C1289      C1290   1.418       .  A
C1290      C2308   1.494       .  S
C1290      C1291   1.400       .  A
C1291      H1298   1.085       .  S
C1291      C1292   1.398       .  A
C1292      C2293   1.481       .  S
O1299     Mg1301   2.137       .  S
O1299     Mg1307   2.161       .  S
O1299      C1334   1.234       .  S
C1300      O1313   1.233       .  S
C1300      O1337   1.268       .  A
C1300      H1339   1.081       .  S
Mg1301     O1330   2.166       .  S
Mg1301     O1345   2.341   1_565  S
Mg1301     O1312   2.300       .  S
O1302     Mg1344   2.172       .  S
O1302     Mg1327   2.153       .  S
O1302      C1323   1.233       .  S
O1303      C1334   1.267       .  A
O1303     Mg1327   2.289       .  S
C1304      O1306   1.270       .  A
C1304      O1318   1.273       .  A
C1304      C2269   1.483       .  S
O1305      C1333   1.267       .  A
O1305     Mg1307   2.290       .  S
O1306     Mg1338   2.241       .  S
Mg1307     O1313   2.167       .  S
Mg1307     O1321   2.273       .  S
Mg1307     O1309   2.295       .  S
C1308      O1346   1.273       .  A
C1308      O1314   1.280       .  A
C1308      C2257   1.497       .  S
O1309      C1316   1.273       .  A
H1310      C1323   1.081       .  S
C1311      O1325   1.235       .  S
C1311      O1326   1.270       .  A
C1311      H1336   1.081       .  S
O1312      C1335   1.270       .  A
O1313     Mg1327   2.172       .  S
O1314     Mg1344   2.340       .  S
C1315      O1328   1.277       .  A
C1315      O1320   1.270       .  A
C1315      C1901   1.471       .  S
C1316      O3755   1.268       .  A
C1316      C4693   1.467       .  S
Mg1317     O1324   2.167       .  S
Mg1317     O1325   2.165       .  S
Mg1317     O1318   2.306       .  S
Mg1317     O1319   2.298       .  S
Mg1317     O1346   2.262       .  S
O1319      C1323   1.268       .  A
O1320     Mg3739   2.289       .  S
O1321      C1340   1.275       .  A
O1322      C1342   1.272       .  A
O1324     Mg1338   2.170       .  S
O1324      C1335   1.235       .  S
O1325     Mg1344   2.158       .  S
O1326     Mg1338   2.301       .  S
Mg1327     O3732   2.291   1_455  S
Mg1327     O3755   2.225       .  S
O1328     Mg3756   2.286       .  S
H1329      C1334   1.081       .  S
O1330     Mg1338   2.146       .  S
O1330      C1333   1.234       .  S
H1331      C1333   1.081       .  S
H1332      C1335   1.081       .  S
O1337     Mg1344   2.297       .  S
C1340      O1345   1.280   1_565  A
C1340      C2356   1.500   1_565  S
O1341      C1342   1.274       .  A
C1342      C1928   1.467       .  S
O1343      C3728   1.268       .  A
O1343     Mg3739   2.221       .  S
Mg1344     O3740   2.287   1_455  S
O1347     Mg1349   2.148       .  S
O1347     Mg1355   2.150       .  S
O1347      C1382   1.235       .  S
C1348      O1361   1.233       .  S
C1348      O1385   1.267       .  A
C1348      H1387   1.081       .  S
Mg1349     O1378   2.164       .  S
Mg1349     O1393   2.312       .  S
Mg1349     O1389   2.271       .  S
Mg1349     O1360   2.286       .  S
O1350     Mg1392   2.175       .  S
O1350     Mg1375   2.157       .  S
O1350      C1371   1.235       .  S
O1351      C1382   1.270       .  A
O1351     Mg1375   2.302       .  S
C1352      O1354   1.269       .  A
C1352      O1366   1.270       .  A
C1352      C2233   1.468       .  S
O1353      C1381   1.268       .  A
O1353     Mg1355   2.289       .  S
O1354     Mg1386   2.233       .  S
Mg1355     O1361   2.152       .  S
Mg1355     O1369   2.231       .  S
Mg1355     O1357   2.257       .  S
C1356      O1394   1.268       .  A
C1356      O1362   1.282   1_565  A
C1356      C2221   1.496   1_565  S
O1357      C1364   1.267       .  A
H1358      C1371   1.081   1_545  S
C1359      O1373   1.235       .  S
C1359      O1374   1.270       .  A
C1359      H1384   1.081       .  S
O1360      C1383   1.266       .  A
O1361     Mg1375   2.163       .  S
O1362     Mg1392   2.361   1_545  S
C1363      O1368   1.275       .  A
C1363      C1926   1.473       .  S
Mg1365     O1372   2.139       .  S
Mg1365     O1373   2.162       .  S
Mg1365     O1366   2.292       .  S
Mg1365     O1367   2.293       .  S
Mg1365     O1394   2.216       .  S
O1367      C1371   1.269       .  A
O1369      C1388   1.265       .  A
O1370      C1390   1.273       .  A
O1370     Mg1386   2.306       .  S
O1372     Mg1386   2.163       .  S
O1372      C1383   1.232       .  S
O1373     Mg1392   2.159       .  S
O1374     Mg1386   2.301       .  S
O1376     Mg1392   2.291   1_545  S
H1377      C1382   1.081       .  S
O1378     Mg1386   2.125       .  S
O1378      C1381   1.235       .  S
H1379      C1381   1.081       .  S
H1380      C1383   1.081       .  S
O1385     Mg1392   2.297       .  S
C1388      O1393   1.277       .  A
C1388      C2248   1.493       .  S
O1389      C1390   1.274       .  A
C1390      C1894   1.467       .  S
C1395      C2284   1.469       .  S
C1395      C1396   1.396       .  A
C1395      C1400   1.411       .  A
C1396      H1415   1.086       .  S
C1396      C1397   1.392       .  A
C1397      C2245   1.483       .  S
C1397      C1398   1.410       .  A
C1398      C1399   1.424       .  A
C1398      C1405   1.401       .  A
C1399      C1400   1.415       .  A
C1399      C1404   1.415       .  A
C1400      C1401   1.409       .  A
C1401      H1411   1.083       .  S
C1401      C1402   1.400       .  A
C1402      H1412   1.083       .  S
C1402      C1403   1.404       .  A
C1403      C1404   1.426       .  A
C1403      C1410   1.418       .  A
C1404      C1407   1.416       .  A
C1405      H1413   1.082       .  S
C1405      C1406   1.387       .  A
C1406      H1414   1.081       .  S
C1406      C1407   1.406       .  A
C1407      C1408   1.403       .  A
C1408      C2209   1.466       .  S
C1408      C1409   1.392       .  A
C1409      H1416   1.086       .  S
C1409      C1410   1.390       .  A
C1410      C2197   1.485       .  S
O1417     Mg1419   2.160       .  S
O1417      C1452   1.236       .  S
C1418      O1431   1.234       .  S
C1418      O1455   1.270   1_556  A
C1418      H1457   1.081       .  S
Mg1419     O1459   2.287       .  S
Mg1419     O1430   2.307       .  S
O1420     Mg1445   2.155   1_554  S
O1420      C1441   1.235       .  S
O1421      C1452   1.272       .  A
O1421     Mg1445   2.311       .  S
C1422      O1424   1.274       .  A
C1422      O1436   1.271       .  A
C1422      C2305   1.496       .  S
O1423      C1451   1.271       .  A
O1423     Mg1425   2.302       .  S
Mg1425     O1431   2.173       .  S
Mg1425     O1439   2.295       .  S
Mg1425     O1427   2.295       .  S
C1426      O1464   1.271       .  A
C1426      O1432   1.273       .  A
C1426      C2344   1.485       .  S
O1427      C1434   1.274       .  A
H1428      C1441   1.081       .  S
C1429      O1443   1.236       .  S
C1429      O1444   1.272       .  A
C1429      H1454   1.081       .  S
O1430      C1453   1.270   1_556  A
C1433      O1446   1.273       .  A
C1433      O1438   1.280   1_554  A
C1434      O1461   1.274       .  A
C1434      C2176   1.496       .  S
Mg1435     O1442   2.159       .  S
Mg1435     O1436   2.285       .  S
Mg1435     O1437   2.301       .  S
Mg1435     O1464   2.272       .  S
O1437      C1441   1.270       .  A
O1439      C1458   1.273       .  A
O1440      C1460   1.277   1_554  A
O1442      C1453   1.235       .  S
O1443     Mg1462   2.172       .  S
O1444     Mg1456   2.309       .  S
O1446     Mg1462   2.303       .  S
H1447      C1452   1.081       .  S
O1448     Mg1456   2.156   1_556  S
O1448      C1451   1.236       .  S
H1449      C1451   1.081       .  S
H1450      C1453   1.081       .  S
O1455     Mg1462   2.308       .  S
C1458      O1463   1.272       .  A
C1458      C2188   1.488       .  S
O1459      C1460   1.272       .  A
O1465     Mg1467   2.137       .  S
O1465     Mg1473   2.121       .  S
O1465      C1500   1.238       .  S
C1466      O1479   1.230       .  S
C1466      O1503   1.263       .  A
C1466      H1505   1.081       .  S
Mg1467     O1496   2.178       .  S
Mg1467     O1511   2.293       .  S
Mg1467     O1507   2.240       .  S
Mg1467     O1478   2.304   1_556  S
O1468     Mg1510   2.190       .  S
O1468     Mg1493   2.142   1_554  S
O1468      C1489   1.237       .  S
O1469      C1500   1.274       .  A
O1469     Mg1493   2.324       .  S
C1470      O1472   1.272       .  A
C1470      O1484   1.265       .  A
C1470      C2332   1.492       .  S
O1471      C1499   1.276       .  A
O1471     Mg1473   2.318       .  S
O1472     Mg1504   2.340       .  S
Mg1473     O1479   2.129       .  S
Mg1473     O1487   2.229       .  S
Mg1473     O1475   2.272       .  S
C1474      O1512   1.265       .  A
C1474      O1480   1.269       .  A
C1474      C2212   1.475       .  S
O1475      C1482   1.265       .  A
H1476      C1489   1.081       .  S
C1477      O1491   1.237       .  S
C1477      O1492   1.275       .  A
C1477      H1502   1.081       .  S
O1478      C1501   1.267       .  A
O1479     Mg1493   2.132       .  S
O1480     Mg1510   2.251       .  S
C1481      O1494   1.273       .  A
C1481      O1486   1.278   1_554  A
C1481      C1880   1.468       .  S
C1482      O1509   1.272       .  A
C1482      C2149   1.491       .  S
Mg1483     O1490   2.149       .  S
Mg1483     O1491   2.153       .  S
Mg1483     O1484   2.265       .  S
Mg1483     O1485   2.297       .  S
Mg1483     O1512   2.230       .  S
O1485      C1489   1.271       .  A
O1486     Mg1493   2.316       .  S
O1487      C1506   1.264       .  A
O1488      C1508   1.277   1_554  A
O1488     Mg1504   2.317       .  S
O1490     Mg1504   2.139       .  S
O1490      C1501   1.232       .  S
O1491     Mg1510   2.160       .  S
O1492     Mg1504   2.331       .  S
Mg1493     O1509   2.303       .  S
O1494     Mg1510   2.284       .  S
H1495      C1500   1.081       .  S
O1496     Mg1504   2.165   1_556  S
O1496      C1499   1.240       .  S
H1497      C1499   1.081       .  S
H1498      C1501   1.081       .  S
O1503     Mg1510   2.283   1_556  S
C1506      O1511   1.271       .  A
C1506      C2164   1.475       .  S
O1507      C1508   1.267       .  A
C1508      C1853   1.455       .  S
O1513     Mg1515   2.156       .  S
O1513     Mg3933   2.139   1_455  S
O1513      C1548   1.238       .  S
C1514      O1527   1.234       .  S
C1514      O1551   1.269       .  A
C1514      H1553   1.081       .  S
Mg1515     O3956   2.171   1_455  S
Mg1515     O3971   2.335   1_455  S
Mg1515     O1555   2.288   1_455  S
Mg1515     O1526   2.294   1_554  S
O1516     Mg3970   2.172   1_455  S
O1516     Mg1541   2.155   1_556  S
O1516      C1537   1.235       .  S
O1517      C1548   1.275       .  A
O1517     Mg1541   2.324       .  S
C1518      O1520   1.271       .  A
C1518      O1532   1.272       .  A
C1518      C2125   1.490       .  S
O1519      C1547   1.271       .  A
O1519     Mg1521   2.303       .  S
O1520     Mg3964   2.253       .  S
Mg1521     O3925   2.139       .  S
Mg1521     O1527   2.168       .  S
Mg1521     O1535   2.263       .  S
Mg1521     O1523   2.291       .  S
C1522      O1560   1.269       .  A
C1522      O1528   1.281       .  A
C1522      C2137   1.497       .  S
O1523      C1530   1.270       .  A
H1524      C1537   1.081       .  S
C1525      O1539   1.237       .  S
C1525      O1540   1.272       .  A
C1525      H1550   1.081       .  S
O1526      C1549   1.267       .  A
O1527     Mg3953   2.145       .  S
O1528     Mg3970   2.341   1_455  S
C1529      O1542   1.276       .  A
C1529      O1534   1.274   1_556  A
C1529      C4258   1.474   1_556  S
C1530      O1557   1.268       .  A
C1530      C2296   1.487       .  S
Mg1531     O1538   2.147       .  S
Mg1531     O3951   2.151   1_455  S
Mg1531     O1532   2.290   1_455  S
Mg1531     O1533   2.299       .  S
Mg1531     O1560   2.253       .  S
O1533      C1537   1.270       .  A
O1534     Mg3953   2.322       .  S
O1535      C1554   1.272       .  A
O1536      C1556   1.272   1_556  A
O1536     Mg3964   2.304       .  S
O1538     Mg3964   2.154   1_455  S
O1538      C1549   1.233       .  S
O1539     Mg3943   2.147       .  S
O1539     Mg1558   2.155       .  S
O1540     Mg1552   2.306       .  S
Mg1541     O3939   2.145   1_455  S
Mg1541     O3946   2.319       .  S
Mg1541     O3969   2.262       .  S
O1542     Mg1558   2.292       .  S
H1543      C1548   1.081       .  S
O1544     Mg3927   2.173       .  S
O1544     Mg1552   2.158   1_554  S
O1544      C1547   1.237       .  S
H1545      C1547   1.081       .  S
H1546      C1549   1.081       .  S
O1551     Mg1558   2.304   1_554  S
Mg1552     O3950   2.151       .  S
Mg1552     O3932   2.256       .  S
Mg1552     O3948   2.304       .  S
C1554      O1559   1.279       .  A
C1554      C2200   1.496       .  S
O1555      C1556   1.276       .  A
C1556      C4290   1.467   1_554  S
O1557     Mg3953   2.260       .  S
Mg1558     O3928   2.175       .  S
Mg1558     O3940   2.342       .  S
O1559     Mg3927   2.340       .  S
O1561     Mg1563   2.170       .  S
O1561     Mg1569   2.143       .  S
O1561      C1596   1.234       .  S
C1562      O1575   1.236       .  S
C1562      O1599   1.272       .  A
C1562      H1601   1.081       .  S
Mg1563     O1592   2.151       .  S
Mg1563     O1607   2.317       .  S
Mg1563     O1603   2.285       .  S
Mg1563     O1574   2.307       .  S
O1564     Mg1606   2.149       .  S
O1564     Mg1589   2.145       .  S
O1564      C1585   1.236       .  S
O1565      C1596   1.271       .  A
O1565     Mg1589   2.311       .  S
C1566      O1580   1.268       .  A
O1567      C1595   1.271       .  A
O1567     Mg1569   2.311       .  S
Mg1569     O1575   2.196       .  S
Mg1569     O1583   2.307       .  S
Mg1569     O1571   2.286       .  S
C1570      O1608   1.272       .  A
C1570      O1576   1.271       .  A
C1570      C2089   1.496       .  S
O1571      C1578   1.272       .  A
H1572      C1585   1.081       .  S
C1573      O1587   1.234       .  S
C1573      O1588   1.270       .  A
C1573      H1598   1.081       .  S
O1574      C1597   1.271       .  A
O1575     Mg1589   2.180       .  S
O1576     Mg1606   2.299       .  S
C1577      O1590   1.266       .  A
C1577      O1582   1.280       .  A
C1577      C1942   1.468       .  S
C1578      O1605   1.274       .  A
C1578      C2113   1.477       .  S
Mg1579     O1586   2.179       .  S
Mg1579     O1587   2.143       .  S
Mg1579     O1580   2.254       .  S
Mg1579     O1581   2.307       .  S
Mg1579     O1608   2.292       .  S
O1581      C1585   1.271       .  A
O1582     Mg1589   2.342       .  S
O1583      C1602   1.273       .  A
O1584      C1604   1.279       .  A
O1586     Mg1600   2.182       .  S
O1586      C1597   1.236       .  S
O1587     Mg1606   2.145       .  S
O1588     Mg1600   2.303       .  S
Mg1589     O1605   2.275       .  S
O1590     Mg1606   2.250       .  S
H1591      C1596   1.081       .  S
O1592     Mg1600   2.158       .  S
O1592      C1595   1.236       .  S
H1593      C1595   1.081       .  S
H1594      C1597   1.081       .  S
O1599     Mg1606   2.315       .  S
C1602      O1607   1.275       .  A
C1602      C2101   1.510       .  S
C1604      C1974   1.472       .  S
C1609      C2161   1.471       .  S
C1609      C1610   1.389       .  A
C1609      C1614   1.408       .  A
C1610      H1629   1.087       .  S
C1610      C1611   1.390       .  A
C1611      C2140   1.485       .  S
C1611      C1612   1.419       .  A
C1612      C1613   1.426       .  A
C1612      C1619   1.403       .  A
C1613      C1614   1.419       .  A
C1613      C1618   1.420       .  A
C1614      C1615   1.404       .  A
C1615      H1625   1.083       .  S
C1615      C1616   1.393       .  A
C1616      H1626   1.083       .  S
C1616      C1617   1.405       .  A
C1617      C1618   1.425       .  A
C1617      C1624   1.416       .  A
C1618      C1621   1.419       .  A
C1619      H1627   1.083       .  S
C1619      C1620   1.399       .  A
C1620      H1628   1.082       .  S
C1620      C1621   1.410       .  A
C1621      C1622   1.416       .  A
C1622      C2068   1.484       .  S
C1622      C1623   1.402       .  A
C1623      H1630   1.085       .  S
C1623      C1624   1.399       .  A
C1624      C2092   1.493       .  S
C1631      C2173   1.484       .  S
C1631      C1632   1.400       .  A
C1631      C1636   1.416       .  A
C1632      H1651   1.085       .  S
C1632      C1633   1.399       .  A
C1633      C2128   1.486       .  S
C1633      C1634   1.411       .  A
C1634      C1635   1.422       .  A
C1634      C1641   1.406       .  A
C1635      C1636   1.419       .  A
C1635      C1640   1.417       .  A
C1636      C1637   1.409       .  A
C1637      H1647   1.083       .  S
C1637      C1638   1.399       .  A
C1638      H1648   1.083       .  S
C1638      C1639   1.403       .  A
C1639      C1640   1.424       .  A
C1639      C1646   1.417       .  A
C1640      C1643   1.419       .  A
C1641      H1649   1.082   1_455  S
C1641      C1642   1.389       .  A
C1642      H1650   1.083   1_455  S
C1642      C1643   1.401       .  A
C1643      C1644   1.403       .  A
C1644      C2053   1.466       .  S
C1644      C1645   1.386       .  A
C1645      H1652   1.087       .  S
C1645      C1646   1.390       .  A
C1646      C2077   1.479       .  S
O1653     Mg1655   2.152       .  S
O1653     Mg1661   2.149       .  S
O1653      C1688   1.236       .  S
C1654      O1667   1.235       .  S
C1654      O1691   1.270       .  A
C1654      H1693   1.081       .  S
Mg1655     O1684   2.184       .  S
Mg1655     O1699   2.292       .  S
Mg1655     O1666   2.290       .  S
O1656     Mg1698   2.179       .  S
O1656     Mg1681   2.135       .  S
O1656      C1677   1.235       .  S
O1657      C1688   1.272       .  A
O1657     Mg1681   2.316       .  S
C1658      O1660   1.279       .  A
C1658      O1672   1.267       .  A
C1658      C2029   1.491       .  S
O1659      C1687   1.271       .  A
O1659     Mg1661   2.301       .  S
O1660     Mg1692   2.320       .  S
Mg1661     O1667   2.176       .  S
Mg1661     O1675   2.304       .  S
Mg1661     O1663   2.301       .  S
C1662      O1700   1.271       .  A
C1662      O1668   1.274       .  A
C1662      C2041   1.491       .  S
O1663      C1670   1.275       .  A
H1664      C1677   1.081       .  S
C1665      O1679   1.234       .  S
C1665      O1680   1.268       .  A
C1665      H1690   1.081       .  S
O1666      C1689   1.267       .  A
O1667     Mg1681   2.153       .  S
O1668     Mg1698   2.295       .  S
C1669      O1682   1.270       .  A
C1669      O1674   1.279       .  A
C1669      C1949   1.468       .  S
C1670      O1697   1.273       .  A
C1670      C2065   1.494       .  S
Mg1671     O1678   2.148       .  S
Mg1671     O1679   2.156       .  S
Mg1671     O1672   2.241       .  S
Mg1671     O1673   2.288       .  S
Mg1671     O1700   2.277       .  S
O1673      C1677   1.268       .  A
O1674     Mg4093   2.318   1_455  S
O1675      C1694   1.275       .  A
O1676      C1696   1.278       .  A
O1678     Mg1692   2.176       .  S
O1678      C1689   1.233       .  S
O1679     Mg1698   2.136       .  S
O1680     Mg1692   2.294       .  S
Mg1681     O4086   2.320       .  S
Mg1681     O1697   2.277       .  S
O1682     Mg4110   2.276   1_455  S
H1683      C1688   1.081       .  S
O1684     Mg1692   2.157       .  S
O1684      C1687   1.236       .  S
H1685      C1687   1.081       .  S
H1686      C1689   1.081       .  S
O1691     Mg1698   2.303       .  S
C1694      O1699   1.273       .  A
O1695      C1696   1.271       .  A
C1696      C1976   1.464       .  S
Mg1698     O4094   2.274       .  S
O1701     Mg1703   2.147       .  S
O1701     Mg1709   2.165       .  S
O1701      C1736   1.236       .  S
C1702      O1715   1.232       .  S
C1702      O1739   1.267       .  A
C1702      H1741   1.081       .  S
Mg1703     O1732   2.161       .  S
Mg1703     O1747   2.327       .  S
Mg1703     O1743   2.282       .  S
Mg1703     O1714   2.297       .  S
O1704     Mg1746   2.160       .  S
O1704     Mg1729   2.149       .  S
O1704      C1725   1.234       .  S
O1705      C1736   1.270       .  A
O1705     Mg1729   2.296       .  S
C1706      O1708   1.268       .  A
C1706      O1720   1.267       .  A
C1706      C1993   1.465       .  S
O1707      C1735   1.268       .  A
O1707     Mg1709   2.285       .  S
O1708     Mg1740   2.238       .  S
Mg1709     O1715   2.144       .  S
Mg1709     O1723   2.222       .  S
Mg1709     O1711   2.243       .  S
C1710      O1748   1.269       .  A
C1710      O1716   1.281       .  A
C1710      C2005   1.500       .  S
O1711      C1718   1.265       .  A
H1712      C1725   1.081       .  S
C1713      O1727   1.237       .  S
C1713      O1728   1.272       .  A
C1713      H1738   1.081       .  S
O1714      C1737   1.267       .  A
O1715     Mg1729   2.163       .  S
O1716     Mg1746   2.352       .  S
C1717      O1730   1.278       .  A
C1717      O1722   1.273       .  A
C1717      C1950   1.463       .  S
C1718      O4157   1.271       .  A
C1718      C4468   1.466       .  S
Mg1719     O1726   2.157       .  S
Mg1719     O1727   2.167       .  S
Mg1719     O1720   2.266       .  S
Mg1719     O1721   2.290       .  S
Mg1719     O1748   2.240       .  S
O1721      C1725   1.267       .  A
O1722     Mg4141   2.302   1_455  S
O1723      C1742   1.267       .  A
O1724      C1744   1.275       .  A
O1724     Mg1740   2.318       .  S
O1726     Mg1740   2.161       .  S
O1726      C1737   1.232       .  S
O1727     Mg1746   2.163       .  S
O1728     Mg1740   2.310       .  S
Mg1729     O4134   2.296       .  S
Mg1729     O4157   2.270       .  S
O1730     Mg4158   2.283   1_455  S
H1731      C1736   1.081       .  S
O1732     Mg1740   2.131       .  S
O1732      C1735   1.235       .  S
H1733      C1735   1.081       .  S
H1734      C1737   1.081       .  S
O1739     Mg1746   2.298       .  S
C1742      O1747   1.278       .  A
C1742      C1981   1.488       .  S
O1743      C1744   1.276       .  A
C1744      C1938   1.470       .  S
O1745      C4130   1.271       .  A
O1745     Mg4141   2.269       .  S
Mg1746     O4142   2.282       .  S
C1749      C2185   1.485       .  S
C1749      C1750   1.395       .  A
C1749      C1754   1.418       .  A
C1750      H1769   1.086       .  S
C1750      C1751   1.395       .  A
C1751      C2152   1.480       .  S
C1751      C1752   1.412       .  A
C1752      C1753   1.420       .  A
C1752      C1759   1.405       .  A
C1753      C1754   1.421       .  A
C1753      C1758   1.418       .  A
C1754      C1755   1.406       .  A
C1755      H1765   1.083       .  S
C1755      C1756   1.402       .  A
C1756      H1766   1.083       .  S
C1756      C1757   1.407       .  A
C1757      C1758   1.421       .  A
C1757      C1764   1.418       .  A
C1758      C1761   1.421       .  A
C1759      H1767   1.082       .  S
C1759      C1760   1.394       .  A
C1760      H1768   1.082       .  S
C1760      C1761   1.405       .  A
C1761      C1762   1.414       .  A
C1762      C1984   1.483       .  S
C1762      C1763   1.396       .  A
C1763      H1770   1.086       .  S
C1763      C1764   1.396       .  A
C1764      C2020   1.486       .  S
C1771      C2368   1.492   1_655  S
C1771      C1772   1.400       .  A
C1771      C1776   1.416       .  A
C1772      H1791   1.085   1_655  S
C1772      C1773   1.401   1_655  A
C1773      C2260   1.493       .  S
C1773      C1774   1.422   1_455  A
C1774      C1775   1.422       .  A
C1774      C1781   1.408   1_655  A
C1775      C1776   1.423       .  A
C1775      C4192   1.424       .  A
C1776      C1777   1.406       .  A
C1777      H1787   1.083       .  S
C1777      C4190   1.396       .  A
C1778      H1788   1.083       .  S
C1778      C4189   1.396       .  A
C1778      C1779   1.405       .  A
C1779      C1780   1.421       .  A
C1779      C1786   1.413       .  A
C1780      C4187   1.423       .  A
C1780      C1783   1.426       .  A
C1781      H1789   1.082       .  S
C1781      C4194   1.399       .  A
C1782      H1790   1.083       .  S
C1782      C4193   1.398       .  A
C1782      C1783   1.404       .  A
C1783      C1784   1.421       .  A
C1784      C2008   1.492       .  S
C1784      C1785   1.396       .  A
C1785      H1792   1.086       .  S
C1785      C1786   1.393       .  A
C1786      C2044   1.481       .  S
C1793      C2236   1.470       .  S
C1793      C1794   1.386       .  A
C1793      C1798   1.405       .  A
C1794      H1813   1.087       .  S
C1794      C1795   1.391       .  A
C1795      C2380   1.472       .  S
C1795      C1796   1.412       .  A
C1796      C1797   1.421       .  A
C1796      C1803   1.406       .  A
C1797      C1798   1.422       .  A
C1797      C1802   1.413       .  A
C1798      C1799   1.403       .  A
C1799      H1809   1.083       .  S
C1799      C1800   1.390       .  A
C1800      H1810   1.083       .  S
C1800      C1801   1.404       .  A
C1801      C1802   1.420       .  A
C1801      C1808   1.403       .  A
C1802      C1805   1.423       .  A
C1803      H1811   1.083       .  S
C1803      C1804   1.399       .  A
C1804      H1812   1.083       .  S
C1804      C1805   1.405       .  A
C1805      C1806   1.413       .  A
C1806      C2116   1.476       .  S
C1806      C1807   1.390       .  A
C1807      H1814   1.087       .  S
C1807      C1808   1.388       .  A
C1808      C1996   1.467       .  S
C1815      C2272   1.483       .  S
C1815      C1816   1.395       .  A
C1815      C1820   1.416       .  A
C1816      H1835   1.086       .  S
C1816      C1817   1.392       .  A
C1817      C2224   1.492   1_565  S
C1817      C1818   1.418       .  A
C1818      C1819   1.427       .  A
C1818      C1825   1.401       .  A
C1819      C1820   1.420       .  A
C1820      C1821   1.406       .  A
C1821      H1831   1.083       .  S
C1822      H1832   1.082       .  S
C1822      C1823   1.407       .  A
C1823      C1824   1.427       .  A
C1823      C1830   1.425       .  A
C1824      C1827   1.420       .  A
C1825      H1833   1.083   1_565  S
C1826      H1834   1.080       .  S
C1826      C1827   1.409       .  A
C1827      C1828   1.416       .  A
C1828      C2032   1.492       .  S
C1828      C1829   1.402       .  A
C1829      H1836   1.084       .  S
C1829      C1830   1.404       .  A
C1830      C2104   1.508       .  S
O1837     Mg4251   2.164   1_455  S
O1837     Mg1845   2.173   1_554  S
O1837      C1872   1.233       .  S
C1838      O1851   1.234       .  S
C1838      O1875   1.269       .  A
C1838      H1877   1.081       .  S
Mg1839     O4249   2.164       .  S
Mg1839     O1868   2.168   1_554  S
Mg1839     O1883   2.319       .  S
Mg1839     O1879   2.276       .  S
Mg1839     O1850   2.300       .  S
O1840     Mg1882   2.178   1_554  S
O1840     Mg1865   2.188       .  S
O1840      C1861   1.234       .  S
O1841     Mg1865   2.295       .  S
C1842      O1844   1.274   1_545  A
O1843      C4283   1.269       .  A
O1843     Mg1845   2.304   1_655  S
O1844     Mg1876   2.280       .  S
Mg1845     O1859   2.260       .  S
Mg1845     O1847   2.313   1_556  S
C1846      O4296   1.270   1_455  A
C1846      O1852   1.277   1_554  A
C1846      C3941   1.473   1_554  S
H1848      C1861   1.081       .  S
C1849      O1863   1.234       .  S
C1849      H1874   1.081       .  S
O1850      C1873   1.269       .  A
O1851     Mg1865   2.169   1_556  S
O1852     Mg1882   2.330       .  S
C1853      O1866   1.271       .  A
C1853      O1858   1.272       .  A
C1854      O1881   1.276       .  A
Mg1855     O1863   2.165   1_554  S
Mg1855     O1856   2.300   1_554  S
Mg1855     O1857   2.307       .  S
Mg1855     O1884   2.275       .  S
O1857      C4273   1.270       .  A
O1858     Mg1865   2.292   1_556  S
O1859      C4290   1.270   1_455  A
O1860      C1880   1.274       .  A
O1860     Mg1876   2.318   1_554  S
C1861      O4269   1.270       .  A
O1862     Mg1876   2.169   1_554  S
O1862      C1873   1.234       .  S
O1863     Mg4294   2.148       .  S
O1864     Mg1876   2.296   1_545  S
Mg1865     O1881   2.305       .  S
O1866     Mg1882   2.250       .  S
H1867      C1872   1.081       .  S
O1868     Mg1876   2.174       .  S
O1868      C1871   1.234       .  S
H1869      C1871   1.081       .  S
H1870      C1873   1.081       .  S
C1871      O4255   1.269       .  A
O1875     Mg1882   2.302       .  S
C1878      O4271   1.270       .  A
C1878      O1883   1.277   1_556  A
C1878      C3968   1.466   1_556  S
O1879      C1880   1.274       .  A
Mg1882     O4275   2.150   1_455  S
O1884      C4258   1.270       .  A
O1885     Mg1887   2.162       .  S
O1885     Mg1893   2.191       .  S
O1885      C1920   1.233       .  S
C1886      O1899   1.233       .  S
C1886      O1923   1.268       .  A
C1886      H1925   1.081       .  S
Mg1887     O1916   2.177       .  S
Mg1887     O1931   2.310       .  S
Mg1887     O1927   2.282       .  S
Mg1887     O1898   2.292       .  S
O1888     Mg1930   2.171       .  S
O1888     Mg1913   2.155       .  S
O1888      C1909   1.233       .  S
O1889      C1920   1.267       .  A
O1889     Mg1913   2.289       .  S
C1890      O1892   1.271       .  A
C1890      O1904   1.277       .  A
O1891      C1919   1.265       .  A
O1891     Mg1893   2.290       .  S
O1892     Mg1924   2.277       .  S
Mg1893     O1899   2.155       .  S
Mg1893     O1907   2.288       .  S
Mg1893     O1895   2.305       .  S
C1894      O1932   1.274       .  A
C1894      O1900   1.276       .  A
O1895      C1902   1.276       .  A
H1896      C1909   1.081       .  S
C1897      O1911   1.234       .  S
C1897      O1912   1.268       .  A
C1897      H1922   1.081       .  S
O1898      C1921   1.267       .  A
O1899     Mg1913   2.184       .  S
O1900     Mg1930   2.308       .  S
C1901      O1914   1.277       .  A
C1901      O1906   1.268       .  A
C1902      O1929   1.267       .  A
Mg1903     O1910   2.149       .  S
Mg1903     O1911   2.189       .  S
Mg1903     O1904   2.312       .  S
Mg1903     O1905   2.294       .  S
Mg1903     O1932   2.273       .  S
O1905      C1909   1.267       .  A
O1906     Mg1913   2.266       .  S
O1907      C1926   1.276       .  A
O1908      C1928   1.272       .  A
O1908     Mg1924   2.280       .  S
O1910     Mg1924   2.178       .  S
O1910      C1921   1.234       .  S
O1911     Mg1930   2.171       .  S
O1912     Mg1924   2.295       .  S
Mg1913     O1929   2.254       .  S
O1914     Mg1930   2.303       .  S
H1915      C1920   1.081       .  S
O1916     Mg1924   2.156       .  S
O1916      C1919   1.232       .  S
H1917      C1919   1.081       .  S
H1918      C1921   1.081       .  S
O1923     Mg1930   2.297       .  S
C1926      O1931   1.275       .  A
O1927      C1928   1.275       .  A
O1933     Mg1935   2.156       .  S
O1933     Mg1941   2.161       .  S
O1933      C1968   1.233       .  S
C1934      O1947   1.233       .  S
C1934      O1971   1.267       .  A
C1934      H1973   1.081       .  S
Mg1935     O1964   2.179       .  S
Mg1935     O1979   2.296       .  S
Mg1935     O1975   2.265       .  S
Mg1935     O1946   2.306       .  S
O1936     Mg1978   2.186       .  S
O1936     Mg1961   2.149       .  S
O1936      C1957   1.234       .  S
O1937      C1968   1.268       .  A
O1937     Mg1961   2.301       .  S
C1938      O1940   1.272       .  A
C1938      O1952   1.276       .  A
O1939      C1967   1.269       .  A
O1939     Mg1941   2.302       .  S
O1940     Mg1972   2.287       .  S
Mg1941     O1947   2.167       .  S
Mg1941     O1955   2.306       .  S
Mg1941     O1943   2.313       .  S
C1942      O1980   1.276       .  A
C1942      O1948   1.269       .  A
O1943      C1950   1.277       .  A
H1944      C1957   1.081       .  S
C1945      O1959   1.233       .  S
C1945      O1960   1.270       .  A
C1945      H1970   1.081       .  S
O1946      C1969   1.270       .  A
O1947     Mg1961   2.173       .  S
O1948     Mg1978   2.280       .  S
C1949      O1962   1.271       .  A
C1949      O1954   1.271       .  A
C1950      O1977   1.269       .  A
Mg1951     O1958   2.180       .  S
Mg1951     O1959   2.165       .  S
Mg1951     O1952   2.315       .  S
Mg1951     O1953   2.297       .  S
Mg1951     O1980   2.304       .  S
O1953      C1957   1.268       .  A
O1954     Mg1961   2.274       .  S
O1955      C1974   1.276       .  A
O1956      C1976   1.274       .  A
O1956     Mg1972   2.294       .  S
O1958     Mg1972   2.167       .  S
O1958      C1969   1.235       .  S
O1959     Mg1978   2.169       .  S
O1960     Mg1972   2.309       .  S
Mg1961     O1977   2.260       .  S
O1962     Mg1978   2.293       .  S
H1963      C1968   1.081       .  S
O1964     Mg1972   2.161       .  S
O1964      C1967   1.234       .  S
H1965      C1967   1.081       .  S
H1966      C1969   1.081       .  S
O1971     Mg1978   2.294       .  S
C1974      O1979   1.271       .  A
O1975      C1976   1.268       .  A
C1981      C1982   1.412       .  A
C1981      C1986   1.412       .  A
C1982      H1991   1.082       .  S
C1982      C1983   1.401       .  A
C1983      C1984   1.406       .  A
C1983      S1987   1.807       .  S
C1984      C1985   1.406       .  A
C1985      H1992   1.084       .  S
C1985      C1986   1.402       .  A
C1986      S1988   1.802       .  S
S1987      H1990   1.407       .  S
S1988      H1989   1.408       .  S
C1993      C1994   1.403       .  A
C1993      C1998   1.410       .  A
C1994      H2003   1.084       .  S
C1994      C1995   1.393       .  A
C1995      C1996   1.408       .  A
C1995      S1999   1.804       .  S
C1996      C1997   1.402       .  A
C1997      H2004   1.084       .  S
C1997      C1998   1.395       .  A
C1998      S2000   1.800       .  S
S1999      H2002   1.404       .  S
S2000      H2001   1.401       .  S
C2005      C2006   1.413       .  A
C2005      C2010   1.414       .  A
C2006      H2015   1.080       .  S
C2006      C2007   1.404       .  A
C2007      C2008   1.408       .  A
C2007      S2011   1.808       .  S
C2008      C4421   1.409       .  A
C2009      H2016   1.084       .  S
C2009      C4420   1.410   1_455  A
C2009      C4422   1.406       .  A
C2010      C4421   1.406       .  A
C2010      S4424   1.801       .  S
S2011      H2014   1.407       .  S
S2012      C4422   1.802       .  S
S2012      H2013   1.407       .  S
C2017      C2018   1.403       .  A
C2017      C2022   1.421       .  A
C2018      H2027   1.084       .  S
C2018      C2019   1.403       .  A
C2019      C2020   1.416       .  A
C2019      S2023   1.805       .  S
C2020      C2021   1.399       .  A
C2021      H2028   1.084       .  S
C2021      C2022   1.402       .  A
S2023      H2026   1.406       .  S
S2024      H2025   1.407       .  S
C2029      C2030   1.405       .  A
C2029      C2034   1.422       .  A
C2030      H2039   1.083       .  S
C2030      C2031   1.404       .  A
C2031      C2032   1.416       .  A
C2032      C2033   1.400       .  A
C2033      H2040   1.084       .  S
C2033      C2034   1.396       .  A
C2034      S2036   1.806       .  S
S2035      H2038   1.407       .  S
S2036      H2037   1.408       .  S
C2041      C2042   1.409       .  A
C2041      C2046   1.419       .  A
C2042      H2051   1.084       .  S
C2042      C2043   1.398       .  A
C2043      C2044   1.408       .  A
C2043      S2047   1.804       .  S
C2044      C2045   1.403       .  A
C2045      H2052   1.084       .  S
C2045      C2046   1.403       .  A
C2046      S2048   1.802       .  S
S2047      H2050   1.405       .  S
S2048      H2049   1.407       .  S
C2053      C2054   1.402       .  A
C2053      C2058   1.407   1_455  A
C2054      H2063   1.084       .  S
C2054      C2055   1.395       .  A
C2055      C2056   1.410   1_455  A
C2055      S4471   1.804       .  S
C2056      C4130   1.464       .  S
C2056      C2057   1.403       .  A
C2057      H2064   1.084       .  S
C2057      C2058   1.393       .  A
C2058      S2060   1.803       .  S
S2059      C4467   1.803       .  S
S2059      H2062   1.407       .  S
S2060      H2061   1.405       .  S
C2065      C2066   1.410       .  A
C2065      C4482   1.418       .  A
C2066      H2075   1.083       .  S
C2066      C4479   1.398       .  A
C2067      C4478   1.398   1_455  A
C2067      C2068   1.410       .  A
C2067      S2071   1.805       .  S
C2068      C2069   1.403       .  A
C2069      H2076   1.084       .  S
C2069      C2070   1.403       .  A
C2070      C4477   1.419   1_455  A
C2070      S2072   1.802       .  S
S2071      H2074   1.404       .  S
S2072      H4485   1.408   1_455  S
H2073      S4484   1.408       .  S
C2077      C2078   1.407       .  A
C2077      C2082   1.411       .  A
C2078      H2087   1.084       .  S
C2078      C2079   1.401       .  A
C2079      C2080   1.412       .  A
C2079      S2083   1.799       .  S
C2081      H2088   1.084       .  S
S2083      H2086   1.407       .  S
S2084      H2085   1.402       .  S
C2089      C2090   1.408       .  A
C2089      C2094   1.418       .  A
C2090      H2099   1.084       .  S
C2090      C2091   1.403       .  A
C2091      C2092   1.414       .  A
C2091      S2095   1.806       .  S
C2092      C2093   1.404       .  A
C2093      H2100   1.084       .  S
C2093      C2094   1.405       .  A
C2094      S2096   1.803       .  S
S2095      H2098   1.403       .  S
S2096      H2097   1.407       .  S
C2101      C2102   1.410       .  A
C2101      C2106   1.422       .  A
C2102      H2111   1.083       .  S
C2102      C2103   1.404       .  A
C2103      C2104   1.417       .  A
C2103      S2107   1.804       .  S
C2104      C2105   1.407       .  A
C2105      H2112   1.083       .  S
C2105      C2106   1.409       .  A
C2106      S2108   1.800       .  S
S2107      H2110   1.407       .  S
S2108      H2109   1.408       .  S
C2113      C2114   1.404       .  A
C2113      C2118   1.415       .  A
C2114      H2123   1.083       .  S
C2114      C2115   1.401       .  A
C2115      C2116   1.408       .  A
C2115      S2119   1.807       .  S
C2116      C2117   1.402       .  A
C2117      H2124   1.084       .  S
C2117      C2118   1.400       .  A
C2118      S2120   1.803       .  S
S2119      H2122   1.407       .  S
S2120      H2121   1.407       .  S
C2125      C2126   1.409       .  A
C2125      C2130   1.419       .  A
C2126      H2135   1.083       .  S
C2126      C2127   1.399   1_655  A
C2127      C2128   1.410       .  A
C2127      S2131   1.804       .  S
C2128      C2129   1.402       .  A
C2129      H2136   1.084       .  S
C2129      C2130   1.400   1_455  A
C2130      S4544   1.803       .  S
S2131      H2134   1.406       .  S
S2132      C4542   1.803       .  S
S2132      H2133   1.408       .  S
C2137      C2138   1.408       .  A
C2137      C2142   1.423       .  A
C2138      H2147   1.083       .  S
C2138      C2139   1.401       .  A
C2139      C2140   1.412       .  A
C2139      S2143   1.803       .  S
C2140      C2141   1.401       .  A
C2141      H2148   1.083       .  S
C2141      C2142   1.407       .  A
C2142      S2144   1.810       .  S
S2143      H2146   1.407       .  S
S2144      H2145   1.407       .  S
C2149      C2150   1.412       .  A
C2149      C2154   1.416       .  A
C2150      H2159   1.083       .  S
C2150      C2151   1.397       .  A
C2151      C2152   1.407       .  A
C2151      S2155   1.805       .  S
C2152      C2153   1.404       .  A
C2153      H2160   1.083       .  S
C2153      C2154   1.405       .  A
C2154      S2156   1.808       .  S
S2155      H2158   1.405       .  S
S2156      H2157   1.407       .  S
C2161      C2162   1.401       .  A
C2161      C2166   1.409       .  A
C2162      H2171   1.085       .  S
C2162      C2163   1.395       .  A
C2163      C2164   1.415       .  A
C2163      S2167   1.804       .  S
C2164      C2165   1.405       .  A
C2165      H2172   1.084       .  S
C2165      C2166   1.398       .  A
C2166      S2168   1.803       .  S
S2167      H2170   1.407       .  S
S2168      H2169   1.406       .  S
C2173      C2174   1.404       .  A
C2173      C2178   1.410       .  A
C2174      H2183   1.083       .  S
C2174      C2175   1.408       .  A
C2175      C2176   1.418       .  A
C2175      S2179   1.808   1_565  S
C2176      C2177   1.410       .  A
C2177      C2178   1.397       .  A
C2178      S2180   1.807       .  S
S2179      H2182   1.407       .  S
S2180      H2181   1.399       .  S
C2185      C2186   1.399       .  A
C2185      C2190   1.416       .  A
C2186      H2195   1.084       .  S
C2186      C2187   1.402       .  A
C2187      C2188   1.420       .  A
C2188      C2189   1.403       .  A
C2189      H2196   1.084       .  S
C2189      C2190   1.402       .  A
C2190      S2192   1.804       .  S
S2191      H2194   1.407       .  S
S2192      H2193   1.406       .  S
C2197      C2198   1.404       .  A
C2197      C2202   1.411       .  A
C2198      H2207   1.084       .  S
C2198      C2199   1.405       .  A
C2199      C2200   1.419       .  A
C2199      S4615   1.802       .  S
C2200      C2201   1.408       .  A
C2201      H2208   1.084       .  S
C2201      C2202   1.401       .  A
C2202      S2204   1.803       .  S
S2203      C4611   1.802   1_455  S
S2203      H2206   1.407       .  S
S2204      H2205   1.405       .  S
C2209      C2210   1.398       .  A
C2209      C2214   1.408       .  A
C2210      H2219   1.084       .  S
C2210      C2211   1.392       .  A
C2211      C2212   1.416       .  A
C2211      S2215   1.799       .  S
C2212      C2213   1.405       .  A
C2213      H2220   1.083       .  S
C2213      C2214   1.388       .  A
C2214      S2216   1.805       .  S
S2215      H2218   1.408       .  S
S2216      H2217   1.407       .  S
C2221      C2222   1.413   1_545  A
C2221      C2226   1.412       .  A
C2222      H2231   1.081       .  S
C2222      C2223   1.401       .  A
C2223      C2224   1.409   1_565  A
C2223      S2227   1.808       .  S
C2225      H2232   1.084       .  S
S2227      H2230   1.407       .  S
S2228      H2229   1.408       .  S
C2233      C2234   1.402       .  A
C2233      C2238   1.411       .  A
C2234      H2243   1.084       .  S
C2234      C2235   1.392       .  A
C2235      C2236   1.408       .  A
C2235      S2239   1.804       .  S
C2236      C2237   1.404       .  A
C2237      H2244   1.084       .  S
C2237      C2238   1.399       .  A
C2238      S2240   1.801       .  S
S2239      H2242   1.405       .  S
S2240      H2241   1.403       .  S
C2245      C2246   1.398       .  A
C2245      C2250   1.410       .  A
C2246      H2255   1.083       .  S
C2246      C2247   1.403       .  A
C2247      C2248   1.426       .  A
C2247      S2251   1.811       .  S
C2248      C2249   1.407       .  A
C2249      H2256   1.084       .  S
C2249      C2250   1.397       .  A
C2250      S2252   1.804       .  S
S2251      H2254   1.407       .  S
S2252      H2253   1.406       .  S
C2257      C2258   1.410       .  A
C2257      C2262   1.417   1_455  A
C2258      H2267   1.083       .  S
C2258      C2259   1.400       .  A
C2259      C2260   1.411       .  A
C2259      S2263   1.805       .  S
C2260      C2261   1.407   1_455  A
C2261      H2268   1.084       .  S
C2261      C2262   1.407       .  A
C2262      S2264   1.803       .  S
S2263      H2266   1.406       .  S
S2264      H2265   1.407       .  S
C2269      C2270   1.405       .  A
C2269      C2274   1.415       .  A
C2270      H2279   1.084   1_565  S
C2270      C2271   1.393   1_565  A
C2271      C2272   1.411   1_545  A
C2271      S2275   1.806       .  S
C2272      C2273   1.405       .  A
C2273      H2280   1.083       .  S
C2273      C2274   1.408       .  A
C2274      S2276   1.807       .  S
S2275      H2278   1.406       .  S
S2276      H2277   1.407       .  S
C2281      C3728   1.466       .  S
C2281      C2282   1.400       .  A
C2281      C2286   1.416       .  A
C2282      H2291   1.084       .  S
C2282      C2283   1.399       .  A
C2283      C2284   1.413       .  A
C2283      S2287   1.803       .  S
C2284      C2285   1.397       .  A
C2285      H2292   1.084       .  S
C2285      C2286   1.392       .  A
C2286      S4700   1.806       .  S
S2287      H2290   1.404       .  S
S2288      C4698   1.806       .  S
S2288      H2289   1.407   1_655  S
C2293      C2294   1.402       .  A
C2293      C2298   1.410       .  A
C2294      H2303   1.083       .  S
C2294      C2295   1.403       .  A
C2295      C2296   1.416       .  A
C2295      S2299   1.808       .  S
C2296      C2297   1.409       .  A
C2297      H2304   1.084       .  S
C2297      C2298   1.398       .  A
C2298      S2300   1.806       .  S
S2299      H2302   1.407       .  S
S2300      H2301   1.404       .  S
C2305      C2306   1.408       .  A
C2305      C2310   1.421       .  A
C2306      C2307   1.402       .  A
C2307      C2308   1.414       .  A
C2308      C2309   1.403       .  A
C2309      H2316   1.083       .  S
C2309      C2310   1.405       .  A
C2310      S2312   1.810       .  S
S2312      H2313   1.407       .  S
C2317      C2318   1.406       .  A
C2318      H2327   1.083       .  S
C2318      C2319   1.402       .  A
C2319      C2320   1.406       .  A
C2319      S2323   1.804       .  S
C2320      C2321   1.404       .  A
C2321      H2328   1.084       .  S
C2322      S2324   1.804       .  S
S2323      H2326   1.407       .  S
S2324      H2325   1.407       .  S
C2329      C2330   1.407       .  A
C2329      C2334   1.411       .  A
C2330      H2339   1.083       .  S
C2330      C2331   1.411       .  A
C2331      C2332   1.415       .  A
C2331      S2335   1.799       .  S
C2332      C2333   1.405       .  A
C2333      H2340   1.083       .  S
C2333      C2334   1.398       .  A
C2334      S2336   1.806       .  S
S2335      H2338   1.406       .  S
S2336      H2337   1.406       .  S
C2341      C2342   1.399       .  A
C2341      C2346   1.412       .  A
C2342      H2351   1.083       .  S
C2342      C2343   1.403       .  A
C2343      C2344   1.419       .  A
C2343      S2347   1.809       .  S
C2344      C2345   1.404       .  A
C2345      H2352   1.084       .  S
C2345      C2346   1.400       .  A
C2346      S2348   1.803       .  S
S2347      H2350   1.407       .  S
S2348      H2349   1.405       .  S
C2353      C2354   1.407       .  A
C2354      H2363   1.084       .  S
C2354      C2355   1.408       .  A
C2355      S2359   1.803       .  S
C2356      C2357   1.410       .  A
C2357      H2364   1.084   1_545  S
C2357      C2358   1.402       .  A
C2358      S2360   1.804       .  S
S2359      H2362   1.408       .  S
S2360      H2361   1.406       .  S
C2365      C2366   1.405       .  A
C2365      C2370   1.415   1_455  A
C2366      H2375   1.082       .  S
C2366      C2367   1.400       .  A
C2367      C2368   1.413       .  A
C2367      S2371   1.803       .  S
C2368      C2369   1.405   1_455  A
C2369      H2376   1.083       .  S
C2369      C2370   1.409       .  A
C2370      S2372   1.806       .  S
S2371      H2374   1.401       .  S
S2372      H2373   1.407       .  S
C2377      C2378   1.403       .  A
C2377      C2382   1.417       .  A
C2378      H2387   1.084       .  S
C2378      C2379   1.397       .  A
C2379      C2380   1.411       .  A
C2379      S2383   1.803       .  S
C2380      C2381   1.400       .  A
C2381      H2388   1.084       .  S
C2381      C2382   1.398       .  A
C2382      S2384   1.803       .  S
S2383      H2386   1.407       .  S
S2384      H2385   1.407       .  S
C2389      C2390   1.398       .  A
C2389      C2394   1.415       .  A
C2390      H4811   1.083       .  S
C2390      C4803   1.399       .  A
C2391      C4802   1.398   1_455  A
C2391      C4804   1.424       .  A
C2391      S2395   1.800       .  S
C2392      C3624   1.494       .  S
C2392      C4803   1.424       .  A
C2392      C2393   1.404       .  A
C2393      H2400   1.082       .  S
C2393      C2394   1.401       .  A
C2394      S2396   1.809       .  S
S2395      H2398   1.408       .  S
S2396      H2397   1.407       .  S
H2399      C4802   1.084   1_455  S
C2401      C2402   1.405       .  A
C2401      C2406   1.418       .  A
C2402      H2411   1.084       .  S
C2402      C2403   1.406       .  A
C2403      C2404   1.414       .  A
C2403      S2407   1.803       .  S
C2404      C2405   1.398       .  A
C2405      H2412   1.085       .  S
C2405      C2406   1.397       .  A
C2406      S2408   1.802       .  S
S2407      H2410   1.405       .  S
S2408      H2409   1.404       .  S
O2413     Mg2415   2.145       .  S
O2413     Mg2421   2.149       .  S
O2413      C2448   1.233       .  S
C2414      O2427   1.235       .  S
C2414      O2451   1.269       .  A
C2414      H2453   1.081       .  S
Mg2415     O2444   2.166       .  S
Mg2415     O2459   2.299       .  S
Mg2415     O2455   2.259       .  S
Mg2415     O2426   2.307       .  S
O2416     Mg2458   2.162       .  S
O2416     Mg2441   2.139       .  S
O2416      C2437   1.237       .  S
O2417      C2448   1.268       .  A
O2417     Mg2441   2.297       .  S
C2418      O2432   1.269       .  A
O2419      C2447   1.270       .  A
O2419     Mg2421   2.302       .  S
Mg2421     O2427   2.171       .  S
Mg2421     O2435   2.286       .  S
Mg2421     O2423   2.268       .  S
C2422      O2460   1.270       .  A
C2422      O2428   1.270       .  A
C2422      C3607   1.484       .  S
O2423      C2430   1.270       .  A
H2424      C2437   1.081       .  S
C2425      O2439   1.233       .  S
C2425      O2440   1.269       .  A
C2425      H2450   1.081       .  S
O2426      C2449   1.271       .  A
O2427     Mg2441   2.185       .  S
O2428     Mg2458   2.293       .  S
C2429      O2442   1.271       .  A
C2429      O2434   1.277       .  A
C2429      C3096   1.472       .  S
C2430      O2457   1.275       .  A
C2430      C3583   1.476       .  S
Mg2431     O2438   2.177       .  S
Mg2431     O2439   2.142       .  S
Mg2431     O2432   2.277       .  S
Mg2431     O2433   2.310       .  S
Mg2431     O2460   2.279       .  S
O2433      C2437   1.272       .  A
O2434     Mg2441   2.311       .  S
O2435      C2454   1.273       .  A
O2436      C2456   1.277       .  A
O2438     Mg2452   2.176       .  S
O2438      C2449   1.235       .  S
O2439     Mg2458   2.164       .  S
O2440     Mg2452   2.306       .  S
Mg2441     O2457   2.276       .  S
O2442     Mg2458   2.282       .  S
H2443      C2448   1.081       .  S
O2444     Mg2452   2.146       .  S
O2444      C2447   1.235       .  S
H2445      C2447   1.081       .  S
H2446      C2449   1.081       .  S
O2451     Mg2458   2.298       .  S
C2454      O2459   1.272       .  A
C2454      C3571   1.492       .  S
C2456      C3108   1.465       .  S
C2461      C3559   1.496       .  S
C2461      C2462   1.400       .  A
C2461      C2466   1.420       .  A
C2462      H2481   1.085       .  S
C2462      C2463   1.400       .  A
C2463      C3610   1.484       .  S
C2463      C2464   1.415       .  A
C2464      C2465   1.420       .  A
C2464      C2471   1.408       .  A
C2465      C2466   1.425       .  A
C2465      C2470   1.422       .  A
C2466      C2467   1.406       .  A
C2467      H2477   1.083       .  S
C2467      C2468   1.397       .  A
C2468      H2478   1.083       .  S
C2468      C2469   1.405       .  A
C2469      C2470   1.421       .  A
C2469      C2476   1.413       .  A
C2470      C2473   1.426       .  A
C2471      H2479   1.083       .  S
C2471      C2472   1.397       .  A
C2472      H2480   1.083       .  S
C2472      C2473   1.404       .  A
C2473      C2474   1.418       .  A
C2474      C3535   1.487       .  S
C2474      C2475   1.393       .  A
C2475      H2482   1.086       .  S
C2475      C2476   1.393       .  A
C2476      C3547   1.478       .  S
C2483      C3595   1.486       .  S
C2483      C2484   1.389       .  A
C2483      C2488   1.416       .  A
C2484      H2503   1.087       .  S
C2484      C2485   1.388       .  A
C2485      C3526   1.474       .  S
C2485      C2486   1.408       .  A
C2486      C2487   1.421       .  A
C2486      C2493   1.403       .  A
C2487      C2488   1.427       .  A
C2487      C2492   1.419       .  A
C2488      C2489   1.403       .  A
C2489      H2499   1.082       .  S
C2489      C2490   1.393       .  A
C2490      H2500   1.083       .  S
C2490      C2491   1.407       .  A
C2491      C2492   1.418       .  A
C2491      C2498   1.411       .  A
C2492      C2495   1.424       .  A
C2493      H2501   1.083       .  S
C2493      C2494   1.395       .  A
C2494      H2502   1.082       .  S
C2494      C2495   1.407       .  A
C2495      C2496   1.419       .  A
C2496      C3514   1.494       .  S
C2496      C2497   1.401       .  A
C2497      H2504   1.085       .  S
C2497      C2498   1.398       .  A
C2498      C3499   1.480       .  S
O2505     Mg2507   2.138       .  S
O2505     Mg2513   2.162       .  S
O2505      C2540   1.234       .  S
C2506      O2519   1.234       .  S
C2506      O2543   1.268       .  A
C2506      H2545   1.081       .  S
Mg2507     O2536   2.168       .  S
Mg2507     O2551   2.338       .  S
Mg2507     O3753   2.268       .  S
Mg2507     O2518   2.298       .  S
O2508     Mg2550   2.170       .  S
O2508     Mg2533   2.153       .  S
O2508      C2529   1.233       .  S
O2509      C2540   1.267       .  A
O2509     Mg2533   2.288       .  S
C2510      O2512   1.271       .  A
C2510      O2524   1.273       .  A
C2510      C3475   1.485       .  S
O2511      C2539   1.268       .  A
O2511     Mg2513   2.293       .  S
O2512     Mg2544   2.253       .  S
Mg2513     O2519   2.172       .  S
Mg2513     O2527   2.283       .  S
Mg2513     O2515   2.302       .  S
C2514      O2552   1.272       .  A
C2514      O2520   1.281       .  A
C2514      C3463   1.495       .  S
O2515      C2522   1.274       .  A
H2516      C2529   1.081       .  S
C2517      O2531   1.235       .  S
C2517      O2532   1.270       .  A
C2517      H2542   1.081       .  S
O2518      C2541   1.269       .  A
O2519     Mg2533   2.174       .  S
O2520     Mg2550   2.345       .  S
C2521      O2534   1.277       .  A
C2521      O2526   1.271       .  A
C2521      C3107   1.474       .  S
Mg2523     O2530   2.162       .  S
Mg2523     O2531   2.166       .  S
Mg2523     O2524   2.303       .  S
Mg2523     O2525   2.297       .  S
Mg2523     O2552   2.253       .  S
O2525      C2529   1.268       .  A
O2527      C2546   1.276       .  A
O2528      C2548   1.273       .  A
O2528     Mg3750   2.306   1_545  S
O2530     Mg2544   2.168       .  S
O2530      C2541   1.235       .  S
O2531     Mg2550   2.158       .  S
O2532     Mg2544   2.301       .  S
H2535      C2540   1.081       .  S
O2536     Mg2544   2.152       .  S
O2536      C2539   1.234       .  S
H2537      C2539   1.081       .  S
H2538      C2541   1.081       .  S
O2543     Mg2550   2.299       .  S
Mg2544     O3734   2.302       .  S
C2546      O2551   1.280       .  A
C2546      C3562   1.503       .  S
O2547      C2548   1.275       .  A
O2547     Mg3713   2.272   1_545  S
C2548      C3134   1.471       .  S
O2553     Mg2555   2.147       .  S
O2553     Mg2561   2.151       .  S
O2553      C2588   1.236       .  S
C2554      O2567   1.233       .  S
C2554      O2591   1.267       .  A
C2554      H2593   1.081       .  S
Mg2555     O2584   2.165       .  S
Mg2555     O2599   2.311       .  S
Mg2555     O2595   2.268       .  S
Mg2555     O2566   2.286       .  S
O2556     Mg2598   2.173       .  S
O2556     Mg2581   2.151       .  S
O2556      C2577   1.235       .  S
O2557      C2588   1.270       .  A
O2557     Mg2581   2.302       .  S
C2558      O2560   1.269       .  A
C2558      O2572   1.270       .  A
C2558      C3439   1.467       .  S
O2559      C2587   1.268       .  A
O2559     Mg2561   2.289       .  S
O2560     Mg2592   2.232       .  S
Mg2561     O2567   2.154       .  S
Mg2561     O2575   2.233       .  S
Mg2561     O2563   2.255       .  S
C2562      O2600   1.268       .  A
C2562      O2568   1.282       .  A
C2562      C3427   1.495       .  S
O2563      C2570   1.266       .  A
H2564      C2577   1.081       .  S
C2565      O2579   1.235       .  S
C2565      O2580   1.270       .  A
C2565      H2590   1.081       .  S
O2566      C2589   1.265       .  A
O2567     Mg2581   2.162       .  S
O2568     Mg2598   2.356       .  S
C2569      O3788   1.279       .  A
C2569      O2574   1.275       .  A
C2569      C3132   1.472       .  S
C2570      O3803   1.273       .  A
C2570      C4729   1.469       .  S
Mg2571     O2578   2.141       .  S
Mg2571     O2579   2.165       .  S
Mg2571     O2572   2.291       .  S
Mg2571     O2573   2.291       .  S
Mg2571     O2600   2.216       .  S
O2573      C2577   1.269       .  A
O2574     Mg3787   2.310   1_545  S
O2575      C2594   1.265       .  A
O2576      C2596   1.273       .  A
O2576     Mg2592   2.307       .  S
O2578     Mg2592   2.163       .  S
O2578      C2589   1.232       .  S
O2579     Mg2598   2.161       .  S
O2580     Mg2592   2.301       .  S
Mg2581     O3780   2.310       .  S
Mg2581     O3803   2.274       .  S
O2582      C3775   1.279       .  A
O2582     Mg2598   2.294       .  S
H2583      C2588   1.081       .  S
O2584     Mg2592   2.124       .  S
O2584      C2587   1.235       .  S
H2585      C2587   1.081       .  S
H2586      C2589   1.081       .  S
O2591     Mg2598   2.297       .  S
C2594      O2599   1.276       .  A
C2594      C3454   1.493       .  S
O2595      C2596   1.274       .  A
C2596      C3100   1.467       .  S
O2597      C3776   1.274   1_545  A
O2597     Mg3787   2.281   1_545  S
C2601      C3490   1.470       .  S
C2601      C2602   1.396       .  A
C2601      C2606   1.411       .  A
C2602      H2621   1.086       .  S
C2602      C2603   1.392       .  A
C2603      C3451   1.483       .  S
C2603      C2604   1.410       .  A
C2604      C2605   1.424       .  A
C2604      C2611   1.401       .  A
C2605      C2606   1.416       .  A
C2605      C2610   1.415       .  A
C2606      C2607   1.409       .  A
C2607      H2617   1.083       .  S
C2607      C2608   1.400       .  A
C2608      H2618   1.083       .  S
C2608      C2609   1.404       .  A
C2609      C2610   1.425       .  A
C2609      C2616   1.417       .  A
C2610      C2613   1.417       .  A
C2611      H2619   1.082       .  S
C2611      C2612   1.388       .  A
C2612      H2620   1.081       .  S
C2612      C2613   1.406       .  A
C2613      C2614   1.404       .  A
C2614      C3415   1.468       .  S
C2614      C2615   1.391       .  A
C2615      H2622   1.087       .  S
C2615      C2616   1.390       .  A
C2616      C3403   1.483       .  S
O2623     Mg2625   2.165       .  S
O2623     Mg3837   2.164   1_545  S
O2623      C2658   1.236       .  S
C2624      O2637   1.235       .  S
C2624      O2661   1.271   1_556  A
C2624      H2663   1.081       .  S
Mg2625     O3860   2.162   1_545  S
Mg2625     O3875   2.288   1_545  S
Mg2625     O2665   2.287       .  S
Mg2625     O2636   2.305       .  S
O2626     Mg3874   2.165   1_545  S
O2626     Mg2651   2.156   1_554  S
O2626      C2647   1.235       .  S
O2627      C2658   1.272       .  A
O2627     Mg2651   2.313       .  S
C2628      O2630   1.275   1_545  A
C2628      O2642   1.271       .  A
C2628      C3511   1.497       .  S
O2629      C2657   1.269       .  A
O2629     Mg2631   2.299       .  S
O2630     Mg3868   2.296       .  S
Mg2631     O3829   2.163       .  S
Mg2631     O2637   2.178       .  S
Mg2631     O2645   2.303       .  S
Mg2631     O2633   2.300       .  S
C2632      O2670   1.271       .  A
C2632      O2638   1.273       .  A
C2632      C3550   1.484       .  S
O2633      C2640   1.275       .  A
H2634      C2647   1.081       .  S
C2635      O2649   1.237       .  S
C2635      O2650   1.272       .  A
C2635      H2660   1.081       .  S
O2636      C2659   1.270   1_556  A
O2637     Mg3857   2.157       .  S
O2638     Mg3874   2.293   1_545  S
C2639      O2652   1.272       .  A
C2639      O2644   1.279   1_554  A
C2639      C4266   1.479       .  S
C2640      O2667   1.273       .  A
C2640      C3382   1.500       .  S
Mg2641     O2648   2.154       .  S
Mg2641     O3855   2.168   1_545  S
Mg2641     O2642   2.285       .  S
Mg2641     O2643   2.299       .  S
Mg2641     O2670   2.267       .  S
O2643      C2647   1.269       .  A
O2644     Mg3857   2.337       .  S
O2645      C2664   1.275       .  A
O2646      C2666   1.276   1_554  A
O2646     Mg3868   2.312   1_545  S
O2648     Mg3868   2.154   1_545  S
O2648      C2659   1.234       .  S
O2649     Mg3847   2.164       .  S
O2649     Mg2668   2.165       .  S
O2650     Mg2662   2.311       .  S
Mg2651     O3843   2.153   1_545  S
Mg2651     O3850   2.336   1_545  S
Mg2651     O3873   2.286       .  S
O2652     Mg2668   2.297       .  S
H2653      C2658   1.081       .  S
O2654     Mg3831   2.163       .  S
O2654     Mg2662   2.155   1_556  S
O2654      C2657   1.235       .  S
H2655      C2657   1.081       .  S
H2656      C2659   1.081       .  S
O2661     Mg2668   2.310       .  S
Mg2662     O3854   2.154       .  S
Mg2662     O3836   2.293       .  S
Mg2662     O3852   2.317       .  S
C2664      O2669   1.274       .  A
C2664      C3394   1.491       .  S
O2665      C2666   1.271       .  A
C2666      C4254   1.468       .  S
O2667     Mg3857   2.281       .  S
Mg2668     O3832   2.159       .  S
Mg2668     O3844   2.293       .  S
O2669     Mg3831   2.296       .  S
O2671     Mg2673   2.141       .  S
O2671     Mg2679   2.120       .  S
O2671      C2706   1.238       .  S
C2672      O2685   1.230       .  S
C2672      O2709   1.262       .  A
C2672      H2711   1.081       .  S
Mg2673     O2702   2.175       .  S
Mg2673     O2717   2.300       .  S
Mg2673     O2713   2.248       .  S
Mg2673     O2684   2.306   1_556  S
O2674     Mg2716   2.192       .  S
O2674     Mg2699   2.140   1_554  S
O2674      C2695   1.238       .  S
O2675      C2706   1.275       .  A
O2675     Mg2699   2.327       .  S
C2676      O2678   1.273       .  A
C2676      O2690   1.264       .  A
C2676      C3538   1.490       .  S
O2677      C2705   1.276       .  A
O2677     Mg2679   2.318       .  S
O2678     Mg2710   2.339       .  S
Mg2679     O2685   2.128       .  S
Mg2679     O2693   2.229       .  S
Mg2679     O2681   2.273       .  S
C2680      O2718   1.266       .  A
C2680      O2686   1.269       .  A
C2680      C3418   1.476       .  S
O2681      C2688   1.265       .  A
H2682      C2695   1.081       .  S
C2683      O2697   1.237       .  S
C2683      O2698   1.275       .  A
C2683      H2708   1.081       .  S
O2684      C2707   1.268       .  A
O2685     Mg2699   2.131       .  S
O2686     Mg2716   2.250       .  S
C2687      O2700   1.272       .  A
C2687      O2692   1.278   1_554  A
C2687      C3086   1.465       .  S
C2688      O2715   1.271       .  A
C2688      C3355   1.492       .  S
Mg2689     O2696   2.153       .  S
Mg2689     O2697   2.151       .  S
Mg2689     O2690   2.262       .  S
Mg2689     O2691   2.296       .  S
Mg2689     O2718   2.238       .  S
O2691      C2695   1.271       .  A
O2692     Mg2699   2.316       .  S
O2693      C2712   1.264       .  A
O2694      C2714   1.278   1_554  A
O2694     Mg2710   2.322       .  S
O2696     Mg2710   2.139       .  S
O2696      C2707   1.232       .  S
O2697     Mg2716   2.152       .  S
O2698     Mg2710   2.330       .  S
Mg2699     O2715   2.302       .  S
O2700     Mg2716   2.273       .  S
H2701      C2706   1.081       .  S
O2702     Mg2710   2.167   1_556  S
O2702      C2705   1.240       .  S
H2703      C2705   1.081       .  S
H2704      C2707   1.081       .  S
O2709     Mg2716   2.282   1_556  S
C2712      O2717   1.272       .  A
C2712      C3370   1.476       .  S
O2713      C2714   1.268       .  A
C2714      C3059   1.458       .  S
O2719     Mg2721   2.157       .  S
O2719      C2754   1.238       .  S
C2720      O2733   1.234       .  S
C2720      O2757   1.269       .  A
C2720      H2759   1.081       .  S
Mg2721     O2761   2.287       .  S
Mg2721     O2732   2.296       .  S
O2722     Mg2747   2.151   1_556  S
O2722      C2743   1.235       .  S
O2723      C2754   1.275       .  A
O2723     Mg2747   2.324       .  S
C2724      O2726   1.271       .  A
C2724      O2738   1.272       .  A
C2724      C3331   1.493       .  S
O2725      C2753   1.272       .  A
O2725     Mg2727   2.304       .  S
Mg2727     O2733   2.165       .  S
Mg2727     O2741   2.256       .  S
Mg2727     O2729   2.279   1_655  S
C2728      O2766   1.269       .  A
C2728      O2734   1.280       .  A
C2728      C3343   1.495       .  S
O2729      C2736   1.268       .  A
H2730      C2743   1.081       .  S
C2731      O2745   1.237       .  S
C2731      O2746   1.272       .  A
C2731      H2756   1.081       .  S
O2732      C2755   1.267   1_554  A
C2735      O2748   1.277       .  A
C2735      O2740   1.275   1_556  A
C2736      O2763   1.269       .  A
C2736      C3502   1.481       .  S
Mg2737     O2744   2.148       .  S
Mg2737     O2738   2.294       .  S
Mg2737     O2739   2.298       .  S
Mg2737     O2766   2.252       .  S
O2739      C2743   1.270       .  A
O2741      C2760   1.270       .  A
O2742      C2762   1.272   1_556  A
O2744      C2755   1.233       .  S
O2745     Mg2764   2.160       .  S
O2746     Mg2758   2.305       .  S
O2748     Mg2764   2.294   1_455  S
H2749      C2754   1.081       .  S
O2750     Mg2758   2.156   1_554  S
O2750      C2753   1.237       .  S
H2751      C2753   1.081       .  S
H2752      C2755   1.081       .  S
O2757     Mg2764   2.303   1_554  S
C2760      O2765   1.279       .  A
C2760      C3406   1.493       .  S
O2761      C2762   1.276       .  A
O2767     Mg2769   2.165       .  S
O2767     Mg2775   2.144       .  S
O2767      C2802   1.234       .  S
C2768      O2781   1.236       .  S
C2768      O2805   1.272       .  A
C2768      H2807   1.081       .  S
Mg2769     O2798   2.156       .  S
Mg2769     O2813   2.322       .  S
Mg2769     O2809   2.277   1_545  S
Mg2769     O2780   2.307       .  S
O2770     Mg2812   2.154       .  S
O2770     Mg2795   2.145       .  S
O2770      C2791   1.236       .  S
O2771      C2802   1.270       .  A
O2771     Mg2795   2.310       .  S
C2772      O3980   1.277   1_545  A
C2772      O2786   1.269       .  A
C2772      C4492   1.481   1_545  S
O2773      C2801   1.271       .  A
O2773     Mg2775   2.309       .  S
O2774      C3978   1.277       .  A
O2774     Mg4012   2.310       .  S
Mg2775     O2781   2.191       .  S
Mg2775     O2789   2.304       .  S
Mg2775     O2777   2.287       .  S
C2776      O2814   1.272       .  A
C2776      O2782   1.269       .  A
C2776      C3295   1.497       .  S
O2777      C2784   1.272       .  A
H2778      C2791   1.081       .  S
C2779      O2793   1.234       .  S
C2779      O2794   1.269       .  A
C2779      H2804   1.081       .  S
O2780      C2803   1.271       .  A
O2781     Mg2795   2.180       .  S
O2782     Mg2812   2.291       .  S
C2783      O2796   1.265       .  A
C2783      O2788   1.279       .  A
C2783      C3148   1.467       .  S
C2784      O2811   1.274       .  A
C2784      C3319   1.477       .  S
Mg2785     O2792   2.177       .  S
Mg2785     O2793   2.140       .  S
Mg2785     O2786   2.257       .  S
Mg2785     O2787   2.307       .  S
Mg2785     O2814   2.295       .  S
O2787      C2791   1.271       .  A
O2788     Mg2795   2.339       .  S
O2789      C2808   1.273       .  A
O2790      C2810   1.281       .  A
O2790     Mg4012   2.340       .  S
O2792     Mg2806   2.182       .  S
O2792      C2803   1.236       .  S
O2793     Mg2812   2.139       .  S
O2794     Mg2806   2.301       .  S
Mg2795     O2811   2.274       .  S
O2796     Mg2812   2.241       .  S
H2797      C2802   1.081       .  S
O2798     Mg2806   2.165       .  S
O2798      C2801   1.235       .  S
H2799      C2801   1.081   1_565  S
H2800      C2803   1.081       .  S
O2805     Mg2812   2.311       .  S
Mg2806     O3980   2.310   1_545  S
Mg2806     O3996   2.333   1_545  S
C2808      O2813   1.276       .  A
C2808      C3307   1.510       .  S
O2809      C4016   1.271       .  A
C2810      O4015   1.271       .  A
C2810      C3180   1.474       .  S
C2815      C3367   1.472       .  S
C2815      C2816   1.390       .  A
C2815      C2820   1.409       .  A
C2816      H2835   1.087       .  S
C2816      C2817   1.391       .  A
C2817      C3346   1.484       .  S
C2817      C2818   1.418       .  A
C2818      C2819   1.426       .  A
C2818      C2825   1.403       .  A
C2819      C2820   1.420       .  A
C2819      C2824   1.420       .  A
C2820      C2821   1.404       .  A
C2821      H2831   1.083       .  S
C2821      C2822   1.394       .  A
C2822      H2832   1.083       .  S
C2822      C2823   1.405       .  A
C2823      C2824   1.424       .  A
C2823      C2830   1.416       .  A
C2824      C2827   1.419       .  A
C2825      H2833   1.083       .  S
C2825      C2826   1.399       .  A
C2826      H2834   1.082       .  S
C2826      C2827   1.409       .  A
C2827      C2828   1.416       .  A
C2828      C3274   1.484       .  S
C2828      C2829   1.401       .  A
C2829      H2836   1.085       .  S
C2829      C2830   1.399       .  A
C2830      C3298   1.492       .  S
C2837      C3379   1.487       .  S
C2837      C2838   1.401       .  A
C2837      C2842   1.417       .  A
C2838      H2857   1.085       .  S
C2838      C2839   1.398       .  A
C2839      C3334   1.488       .  S
C2839      C2840   1.412       .  A
C2840      C2841   1.423       .  A
C2840      C2847   1.406       .  A
C2841      C2842   1.420       .  A
C2841      C2846   1.418       .  A
C2842      C2843   1.409       .  A
C2843      H2853   1.082       .  S
C2843      C2844   1.399       .  A
C2844      H2854   1.083       .  S
C2844      C2845   1.403       .  A
C2845      C2846   1.425       .  A
C2845      C2852   1.418       .  A
C2846      C2849   1.419       .  A
C2847      H2855   1.082       .  S
C2847      C2848   1.389       .  A
C2848      H2856   1.083       .  S
C2848      C2849   1.402       .  A
C2849      C2850   1.404       .  A
C2850      C3259   1.467       .  S
C2850      C2851   1.386       .  A
C2851      H2858   1.087       .  S
C2851      C2852   1.390       .  A
C2852      C3283   1.480       .  S
O2859     Mg2861   2.159       .  S
O2859     Mg2867   2.152       .  S
O2859      C2894   1.236       .  S
C2860      O2873   1.235       .  S
C2860      O2897   1.270       .  A
C2860      H2899   1.081       .  S
Mg2861     O2890   2.183       .  S
Mg2861     O2905   2.286       .  S
Mg2861     O4107   2.279   1_545  S
Mg2861     O2872   2.288       .  S
O2862     Mg2904   2.178       .  S
O2862     Mg2887   2.134       .  S
O2862      C2883   1.235       .  S
O2863      C2894   1.272       .  A
O2863     Mg2887   2.315       .  S
C2864      O2866   1.279   1_545  A
C2864      O2878   1.267       .  A
C2864      C3235   1.493       .  S
O2865      C2893   1.271       .  A
O2865     Mg2867   2.301       .  S
O2866     Mg2898   2.322   1_565  S
Mg2867     O2873   2.170       .  S
Mg2867     O2881   2.294       .  S
Mg2867     O2869   2.306       .  S
C2868      O2906   1.271       .  A
C2868      O2874   1.275       .  A
C2868      C3247   1.490       .  S
O2869      C2876   1.276       .  A
H2870      C2883   1.081       .  S
C2871      O2885   1.234       .  S
C2871      O2886   1.268       .  A
C2871      H2896   1.081       .  S
O2872      C2895   1.266       .  A
O2873     Mg2887   2.153       .  S
O2874     Mg2904   2.296       .  S
C2875      O2888   1.271       .  A
C2875      O2880   1.279       .  A
C2875      C3155   1.470       .  S
C2876      O2903   1.272       .  A
C2876      C3271   1.496       .  S
Mg2877     O2884   2.146       .  S
Mg2877     O2885   2.160       .  S
Mg2877     O2878   2.242       .  S
Mg2877     O2879   2.287       .  S
Mg2877     O2906   2.272       .  S
O2879      C2883   1.268       .  A
O2881      C2900   1.274       .  A
O2882      C2902   1.279       .  A
O2882     Mg4104   2.314       .  S
O2884     Mg2898   2.178       .  S
O2884      C2895   1.233       .  S
O2885     Mg2904   2.140       .  S
O2886     Mg2898   2.292       .  S
Mg2887     O2903   2.277       .  S
H2889      C2894   1.081       .  S
O2890     Mg2898   2.156       .  S
O2890      C2893   1.236       .  S
H2891      C2893   1.081   1_565  S
H2892      C2895   1.081       .  S
O2897     Mg2904   2.302       .  S
Mg2898     O4088   2.307   1_545  S
C2900      O2905   1.272       .  A
C2900      C4429   1.486   1_545  S
O2901      C2902   1.271       .  A
O2901     Mg4067   2.275       .  S
C2902      C3182   1.466       .  S
O2907     Mg2909   2.147       .  S
O2907     Mg2915   2.162       .  S
O2907      C2942   1.236       .  S
C2908      O2921   1.232       .  S
C2908      O2945   1.267       .  A
C2908      H2947   1.081       .  S
Mg2909     O2938   2.164       .  S
Mg2909     O2953   2.324       .  S
Mg2909     O2949   2.286       .  S
Mg2909     O2920   2.294       .  S
O2910     Mg2952   2.158       .  S
O2910     Mg2935   2.149       .  S
O2910      C2931   1.234       .  S
O2911      C2942   1.270       .  A
O2911     Mg2935   2.297       .  S
C2912      O2914   1.268       .  A
C2912      O2926   1.268       .  A
C2912      C3199   1.467       .  S
O2913      C2941   1.268       .  A
O2913     Mg2915   2.286       .  S
O2914     Mg2946   2.241       .  S
Mg2915     O2921   2.145       .  S
Mg2915     O2929   2.221       .  S
Mg2915     O2917   2.244       .  S
C2916      O2954   1.269       .  A
C2916      O2922   1.280       .  A
C2916      C3211   1.500       .  S
O2917      C2924   1.265       .  A
H2918      C2931   1.081   1_455  S
C2919      O2933   1.237       .  S
C2919      O2934   1.272       .  A
C2919      H2944   1.081       .  S
O2920      C2943   1.266       .  A
O2921     Mg2935   2.163       .  S
O2922     Mg2952   2.348       .  S
C2923      O2936   1.277       .  A
C2923      O2928   1.273       .  A
C2923      C3156   1.461       .  S
Mg2925     O2932   2.152       .  S
Mg2925     O2933   2.167       .  S
Mg2925     O2926   2.270       .  S
Mg2925     O2927   2.291       .  S
Mg2925     O2954   2.236       .  S
O2927      C2931   1.268       .  A
O2929      C2948   1.267       .  A
O2930      C2950   1.274       .  A
O2930     Mg2946   2.314       .  S
O2932     Mg2946   2.159       .  S
O2932      C2943   1.232       .  S
O2933     Mg2952   2.166       .  S
O2934     Mg2946   2.311       .  S
H2937      C2942   1.081       .  S
O2938     Mg2946   2.131       .  S
O2938      C2941   1.235       .  S
H2939      C2941   1.081       .  S
H2940      C2943   1.081       .  S
O2945     Mg2952   2.300       .  S
C2948      O2953   1.278       .  A
C2948      C3187   1.487       .  S
O2949      C2950   1.276       .  A
C2950      C3144   1.470       .  S
C2955      C3391   1.488       .  S
C2955      C2956   1.396       .  A
C2955      C2960   1.420       .  A
C2956      H2975   1.086       .  S
C2956      C2957   1.395       .  A
C2957      C3358   1.481       .  S
C2957      C2958   1.412       .  A
C2958      C2959   1.420       .  A
C2958      C2965   1.405       .  A
C2959      C2960   1.422       .  A
C2959      C2964   1.419       .  A
C2960      C2961   1.407       .  A
C2961      H2971   1.083       .  S
C2961      C2962   1.403       .  A
C2962      H2972   1.082       .  S
C2962      C2963   1.408       .  A
C2963      C2964   1.421       .  A
C2963      C2970   1.419       .  A
C2964      C2967   1.421       .  A
C2965      H2973   1.082       .  S
C2965      C2966   1.394       .  A
C2966      H2974   1.082       .  S
C2966      C2967   1.405       .  A
C2967      C2968   1.413       .  A
C2968      C3190   1.483       .  S
C2968      C2969   1.396       .  A
C2969      H2976   1.086       .  S
C2969      C2970   1.397       .  A
C2970      C3226   1.487       .  S
C2977      C3574   1.491       .  S
C2977      C2978   1.400       .  A
C2977      C2982   1.416       .  A
C2978      H2997   1.085       .  S
C2978      C2979   1.400       .  A
C2979      C3466   1.491       .  S
C2979      C2980   1.420       .  A
C2980      C2981   1.422       .  A
C2980      C2987   1.407       .  A
C2981      C2982   1.422       .  A
C2982      C2983   1.406       .  A
C2983      H2993   1.083       .  S
C2984      H2994   1.083       .  S
C2984      C2985   1.406       .  A
C2985      C2986   1.422       .  A
C2985      C2992   1.413       .  A
C2986      C2989   1.426       .  A
C2987      H2995   1.082       .  S
C2988      H2996   1.083       .  S
C2988      C2989   1.405   1_455  A
C2989      C2990   1.422       .  A
C2990      C3214   1.492       .  S
C2990      C2991   1.396       .  A
C2991      H2998   1.086       .  S
C2991      C2992   1.393       .  A
C2992      C3250   1.481       .  S
C2999      C3442   1.470       .  S
C2999      C3000   1.387       .  A
C2999      C3004   1.405       .  A
C3000      H3019   1.087       .  S
C3000      C3001   1.392       .  A
C3001      C3586   1.473       .  S
C3001      C3002   1.411       .  A
C3002      C3003   1.421       .  A
C3002      C3009   1.406       .  A
C3003      C3004   1.421       .  A
C3003      C3008   1.413       .  A
C3004      C3005   1.403       .  A
C3005      H3015   1.083       .  S
C3005      C3006   1.391       .  A
C3006      H3016   1.083       .  S
C3006      C3007   1.403       .  A
C3007      C3008   1.420       .  A
C3007      C3014   1.404       .  A
C3008      C3011   1.423       .  A
C3009      H3017   1.083       .  S
C3009      C3010   1.398       .  A
C3010      H3018   1.083       .  S
C3010      C3011   1.405       .  A
C3011      C3012   1.412       .  A
C3012      C3322   1.475       .  S
C3012      C3013   1.390       .  A
C3013      H3020   1.087       .  S
C3013      C3014   1.388       .  A
C3014      C3202   1.468       .  S
C3021      C3478   1.484       .  S
C3021      C3022   1.395       .  A
C3021      C3026   1.417       .  A
C3022      H3041   1.086       .  S
C3022      C3023   1.392       .  A
C3023      C3430   1.491       .  S
C3023      C3024   1.418       .  A
C3024      C3025   1.426       .  A
C3024      C3031   1.401       .  A
C3025      C3026   1.421       .  A
C3025      C4236   1.425       .  A
C3026      C3027   1.405       .  A
C3027      H3037   1.082       .  S
C3027      C4234   1.398       .  A
C3028      H3038   1.082       .  S
C3028      C4233   1.398       .  A
C3028      C3029   1.406       .  A
C3029      C3030   1.427       .  A
C3029      C3036   1.424       .  A
C3030      C4231   1.425       .  A
C3030      C3033   1.421       .  A
C3031      H3039   1.083       .  S
C3031      C4238   1.393       .  A
C3032      H3040   1.080       .  S
C3032      C4237   1.393       .  A
C3032      C3033   1.409       .  A
C3033      C3034   1.417       .  A
C3034      C3238   1.492       .  S
C3034      C3035   1.401       .  A
C3035      H3042   1.085       .  S
C3035      C3036   1.403       .  A
C3036      C3310   1.506       .  S
O3043     Mg3051   2.174   1_554  S
O3043      C3078   1.233       .  S
C3044      O3057   1.235       .  S
C3044      O3081   1.270       .  A
C3044      H3083   1.081       .  S
Mg3045     O3074   2.168   1_554  S
Mg3045     O3089   2.314       .  S
Mg3045     O3085   2.268       .  S
Mg3045     O3056   2.300       .  S
O3046     Mg3088   2.178   1_554  S
O3046     Mg3071   2.185       .  S
O3046      C3067   1.234       .  S
O3047      C4284   1.268       .  A
O3047     Mg3071   2.297   1_565  S
C3048      O3050   1.274       .  A
C3048      O4268   1.272       .  A
C3048      C3872   1.467       .  S
O3049     Mg3051   2.302       .  S
O3050     Mg3082   2.283       .  S
Mg3051     O4263   2.156       .  S
Mg3051     O3065   2.259       .  S
Mg3051     O3053   2.308   1_556  S
C3052      O3058   1.277   1_554  A
O3053      C4266   1.273       .  A
H3054      C3067   1.081       .  S
C3055      O3069   1.234       .  S
C3055      O4276   1.268       .  A
C3055      H3080   1.081       .  S
O3056      C3079   1.269       .  A
O3057     Mg4257   2.159   1_545  S
O3057     Mg3071   2.170   1_556  S
O3058     Mg3088   2.332       .  S
C3059      O3072   1.271       .  A
C3059      O3064   1.273       .  A
C3060      O4259   1.273       .  A
C3060      O3087   1.276   1_565  A
C3060      C3845   1.478       .  S
Mg3061     O4274   2.157   1_545  S
Mg3061     O3069   2.166   1_554  S
Mg3061     O3062   2.296   1_554  S
Mg3061     O3063   2.305   1_655  S
Mg3061     O3090   2.272       .  S
O3062      C4254   1.271       .  A
O3064     Mg3071   2.300   1_556  S
O3066      C3086   1.274       .  A
O3066     Mg3082   2.313   1_554  S
O3068     Mg4267   2.156       .  S
O3068     Mg3082   2.169   1_554  S
O3068      C3079   1.234       .  S
O3070      C4261   1.268       .  A
O3070     Mg3082   2.295       .  S
Mg3071     O3087   2.303       .  S
O3072     Mg3088   2.253       .  S
H3073      C3078   1.081       .  S
O3074     Mg3082   2.176       .  S
O3074      C3077   1.234       .  S
H3075      C3077   1.081       .  S
H3076      C3079   1.081       .  S
C3078      O4253   1.268       .  A
O3081     Mg3088   2.303       .  S
C3084      O3089   1.276   1_556  A
O3085      C3086   1.272       .  A
O3091     Mg3093   2.167       .  S
O3091     Mg3099   2.192       .  S
O3091      C3126   1.234       .  S
C3092      O3105   1.233       .  S
C3092      O3129   1.268       .  A
C3092      H3131   1.081       .  S
Mg3093     O3122   2.176       .  S
Mg3093     O3137   2.308       .  S
Mg3093     O3133   2.289       .  S
Mg3093     O3104   2.293       .  S
O3094     Mg3136   2.170       .  S
O3094     Mg3119   2.149       .  S
O3094      C3115   1.233       .  S
O3095      C3126   1.268       .  A
O3095     Mg3119   2.291       .  S
C3096      O3098   1.271       .  A
C3096      O3110   1.277       .  A
O3097      C3125   1.266       .  A
O3097     Mg3099   2.290       .  S
O3098     Mg3130   2.274       .  S
Mg3099     O3105   2.156       .  S
Mg3099     O3113   2.286       .  S
Mg3099     O3101   2.303       .  S
C3100      O3138   1.275       .  A
C3100      O3106   1.275       .  A
O3101      C3108   1.276       .  A
H3102      C3115   1.081       .  S
C3103      O3117   1.234       .  S
C3103      O3118   1.269       .  A
C3103      H3128   1.081       .  S
O3104      C3127   1.267       .  A
O3105     Mg3119   2.184       .  S
O3106     Mg3136   2.303       .  S
C3107      O3120   1.278       .  A
C3107      O3112   1.269       .  A
C3108      O3135   1.267       .  A
Mg3109     O3116   2.153       .  S
Mg3109     O3117   2.192       .  S
Mg3109     O3110   2.314       .  S
Mg3109     O3111   2.292       .  S
Mg3109     O3138   2.277       .  S
O3111      C3115   1.267       .  A
O3112     Mg3119   2.273       .  S
O3113      C3132   1.276       .  A
O3114      C3134   1.272       .  A
O3114     Mg3130   2.287       .  S
O3116     Mg3130   2.179       .  S
O3116      C3127   1.233       .  S
O3117     Mg3136   2.176       .  S
O3118     Mg3130   2.296       .  S
Mg3119     O3135   2.253       .  S
O3120     Mg3136   2.309       .  S
H3121      C3126   1.081       .  S
O3122     Mg3130   2.154       .  S
O3122      C3125   1.232       .  S
H3123      C3125   1.081       .  S
H3124      C3127   1.081       .  S
O3129     Mg3136   2.296       .  S
C3132      O3137   1.275       .  A
O3133      C3134   1.276       .  A
O3139     Mg3141   2.157       .  S
O3139     Mg3147   2.165       .  S
O3139      C3174   1.233       .  S
C3140      O3153   1.233       .  S
C3140      O3177   1.267       .  A
C3140      H3179   1.081       .  S
Mg3141     O3170   2.180       .  S
Mg3141     O3185   2.298       .  S
Mg3141     O3181   2.270       .  S
Mg3141     O3152   2.308       .  S
O3142     Mg3184   2.183       .  S
O3142     Mg3167   2.147       .  S
O3142      C3163   1.234       .  S
O3143      C3174   1.268       .  A
O3143     Mg3167   2.298       .  S
C3144      O3146   1.271       .  A
C3144      O3158   1.275       .  A
O3145      C3173   1.269       .  A
O3145     Mg3147   2.301       .  S
O3146     Mg3178   2.287       .  S
Mg3147     O3153   2.171       .  S
Mg3147     O3161   2.311       .  S
Mg3147     O3149   2.309       .  S
C3148      O3186   1.275       .  A
C3148      O3154   1.269       .  A
O3149      C3156   1.277       .  A
H3150      C3163   1.081       .  S
C3151      O3165   1.234       .  S
C3151      O3166   1.270       .  A
C3151      H3176   1.081       .  S
O3152      C3175   1.270       .  A
O3153     Mg3167   2.178       .  S
O3154     Mg3184   2.280       .  S
C3155      O3168   1.271       .  A
C3155      O3160   1.271       .  A
C3156      O3183   1.269       .  A
Mg3157     O3164   2.184       .  S
Mg3157     O3165   2.160       .  S
Mg3157     O3158   2.312       .  S
Mg3157     O3159   2.300       .  S
Mg3157     O3186   2.300       .  S
O3159      C3163   1.269       .  A
O3160     Mg3167   2.278       .  S
O3161      C3180   1.277       .  A
O3162      C3182   1.274       .  A
O3162     Mg3178   2.296       .  S
O3164     Mg3178   2.165       .  S
O3164      C3175   1.235       .  S
O3165     Mg3184   2.171       .  S
O3166     Mg3178   2.313       .  S
Mg3167     O3183   2.258       .  S
O3168     Mg3184   2.295       .  S
H3169      C3174   1.081       .  S
O3170     Mg3178   2.161       .  S
O3170      C3173   1.234       .  S
H3171      C3173   1.081       .  S
H3172      C3175   1.081       .  S
O3177     Mg3184   2.294       .  S
C3180      O3185   1.271       .  A
O3181      C3182   1.269       .  A
C3187      C3188   1.412       .  A
C3187      C3192   1.412       .  A
C3188      H3197   1.082       .  S
C3188      C3189   1.401       .  A
C3189      C3190   1.406       .  A
C3189      S3193   1.807       .  S
C3190      C3191   1.406       .  A
C3191      H3198   1.084       .  S
C3191      C3192   1.402       .  A
C3192      S3194   1.802       .  S
S3193      H3196   1.407       .  S
S3194      H3195   1.407       .  S
C3199      C3200   1.403       .  A
C3199      C3204   1.411       .  A
C3200      H3209   1.084       .  S
C3200      C3201   1.394       .  A
C3201      C3202   1.407       .  A
C3201      S3205   1.803       .  S
C3202      C3203   1.403       .  A
C3203      H3210   1.084       .  S
C3203      C3204   1.395       .  A
C3204      S3206   1.800       .  S
S3205      H3208   1.404       .  S
S3206      H3207   1.402       .  S
C3211      C3212   1.413       .  A
C3211      C3216   1.415   1_655  A
C3212      H3221   1.080       .  S
C3212      C3213   1.404       .  A
C3213      C3214   1.408       .  A
C3213      S3217   1.808       .  S
C3215      H3222   1.084       .  S
S3217      H3220   1.407       .  S
S3218      H3219   1.408       .  S
C3223      C4106   1.488       .  S
C3223      C3224   1.402       .  A
C3223      C3228   1.420       .  A
C3224      H3233   1.084       .  S
C3224      C3225   1.402       .  A
C3225      C3226   1.417       .  A
C3225      S3229   1.805       .  S
C3226      C3227   1.400       .  A
C3227      H3234   1.084       .  S
C3227      C3228   1.403       .  A
C3228      S4436   1.803       .  S
S3229      H3232   1.406       .  S
S3230      C4434   1.803       .  S
S3230      H3231   1.407   1_565  S
C3235      C3236   1.406   1_545  A
C3235      C3240   1.423       .  A
C3236      H3245   1.083       .  S
C3236      C3237   1.404       .  A
C3237      C3238   1.416       .  A
C3237      S4447   1.803       .  S
C3238      C3239   1.400   1_565  A
C3239      H3246   1.084       .  S
C3239      C3240   1.396       .  A
C3240      S3242   1.806       .  S
S3241      C4443   1.803       .  S
S3241      H3244   1.407       .  S
S3242      H3243   1.408       .  S
C3247      C3248   1.409       .  A
C3247      C3252   1.419       .  A
C3248      H3257   1.084       .  S
C3248      C3249   1.398       .  A
C3249      C3250   1.408       .  A
C3249      S3253   1.804   1_655  S
C3250      C3251   1.403       .  A
C3251      H3258   1.084       .  S
C3251      C3252   1.403       .  A
C3252      S3254   1.802       .  S
S3253      H3256   1.405       .  S
S3254      H3255   1.407       .  S
C3259      C3260   1.402       .  A
C3259      C3264   1.408       .  A
C3260      H3269   1.084       .  S
C3260      C3261   1.395       .  A
C3261      C3262   1.410       .  A
C3262      C3263   1.403       .  A
C3263      H3270   1.084       .  S
C3263      C3264   1.393       .  A
C3264      S3266   1.804       .  S
S3265      H3268   1.407   1_455  S
S3266      H3267   1.404       .  S
C3271      C3272   1.411       .  A
C3272      H3281   1.083       .  S
C3273      C3274   1.411       .  A
C3273      S3277   1.806       .  S
C3274      C3275   1.403       .  A
C3275      H3282   1.084       .  S
C3275      C3276   1.402       .  A
C3276      S3278   1.802       .  S
S3277      H3280   1.404       .  S
C3283      C3284   1.407       .  A
C3283      C3288   1.411       .  A
C3284      H3293   1.084       .  S
C3284      C3285   1.402       .  A
C3285      C3286   1.412       .  A
C3285      S3289   1.798       .  S
C3286      C3978   1.484       .  S
C3286      C4493   1.407       .  A
C3287      H3294   1.084       .  S
C3287      C4492   1.406   1_545  A
C3287      C4494   1.399   1_545  A
C3288      C4493   1.399       .  A
C3288      S4496   1.803       .  S
S3289      H3292   1.407       .  S
S3290      C4494   1.804   1_545  S
S3290      H3291   1.404   1_545  S
C3295      C3296   1.409       .  A
C3295      C3300   1.420       .  A
C3296      H3305   1.084       .  S
C3296      C3297   1.403       .  A
C3297      C3298   1.414       .  A
C3297      S3301   1.805       .  S
C3298      C3299   1.403       .  A
C3299      H3306   1.084       .  S
C3299      C3300   1.404       .  A
C3300      S3302   1.803       .  S
S3301      H3304   1.404       .  S
S3302      H3303   1.407       .  S
C3307      C3308   1.410   1_545  A
C3307      C3312   1.423       .  A
C3308      H3317   1.083       .  S
C3308      C3309   1.405       .  A
C3309      C3310   1.417       .  A
C3309      S3313   1.804       .  S
C3310      C3311   1.406   1_565  A
C3311      H3318   1.083       .  S
C3311      C3312   1.409       .  A
C3312      S3314   1.800       .  S
S3313      H3316   1.407       .  S
S3314      H3315   1.408       .  S
C3319      C3320   1.404       .  A
C3319      C3324   1.415       .  A
C3320      H3329   1.083       .  S
C3320      C3321   1.401       .  A
C3321      C3322   1.408       .  A
C3321      S3325   1.807       .  S
C3322      C3323   1.402       .  A
C3323      H3330   1.084       .  S
C3323      C3324   1.400       .  A
C3324      S3326   1.803       .  S
S3325      H3328   1.407       .  S
S3326      H3327   1.407       .  S
C3331      C3332   1.409       .  A
C3331      C3336   1.419       .  A
C3332      H3341   1.083       .  S
C3332      C3333   1.399       .  A
C3333      C3334   1.410       .  A
C3333      S3337   1.804       .  S
C3334      C3335   1.403       .  A
C3335      H3342   1.084       .  S
C3335      C3336   1.401       .  A
S3337      H3340   1.407       .  S
S3338      H3339   1.408       .  S
C3343      C3344   1.408       .  A
C3343      C3348   1.422       .  A
C3344      H3353   1.084       .  S
C3344      C3345   1.402       .  A
C3345      C3346   1.412       .  A
C3345      S3349   1.803       .  S
C3346      C3347   1.401       .  A
C3347      H3354   1.084       .  S
C3347      C3348   1.402       .  A
C3348      S3350   1.803       .  S
S3349      H3352   1.407       .  S
S3350      H3351   1.408       .  S
C3355      C3356   1.412       .  A
C3355      C3360   1.416       .  A
C3356      H3365   1.083       .  S
C3356      C3357   1.397       .  A
C3357      C3358   1.407       .  A
C3357      S3361   1.805       .  S
C3358      C3359   1.404       .  A
C3359      H3366   1.083       .  S
C3359      C3360   1.404       .  A
C3360      S3362   1.808       .  S
S3361      H3364   1.405       .  S
S3362      H3363   1.407       .  S
C3367      C3368   1.401       .  A
C3367      C3372   1.409       .  A
C3368      H3377   1.085       .  S
C3368      C3369   1.396       .  A
C3369      C3370   1.416       .  A
C3369      S3373   1.804       .  S
C3370      C3371   1.405       .  A
C3371      H3378   1.084       .  S
C3371      C3372   1.398       .  A
C3372      S3374   1.803       .  S
S3373      H3376   1.407       .  S
S3374      H3375   1.406       .  S
C3379      C3380   1.403       .  A
C3379      C3384   1.410       .  A
C3380      H3389   1.083       .  S
C3380      C3381   1.406       .  A
C3381      C3382   1.422       .  A
C3381      S3385   1.810       .  S
C3382      C3383   1.412       .  A
C3383      H4596   1.083       .  S
C3383      C3384   1.399       .  A
C3384      S3386   1.805       .  S
S3385      H3388   1.407       .  S
S3386      H3387   1.405       .  S
H3390      C4589   1.083       .  S
C3391      C3392   1.400       .  A
C3391      C3396   1.417       .  A
C3392      H3401   1.084       .  S
C3392      C3393   1.403       .  A
C3393      C3394   1.421       .  A
C3393      S4603   1.803       .  S
C3394      C3395   1.403       .  A
C3395      H3402   1.084       .  S
C3395      C3396   1.404       .  A
C3396      S3398   1.804       .  S
S3397      C4599   1.804   1_545  S
S3397      H3400   1.407       .  S
S3398      H3399   1.406       .  S
C3403      C3404   1.404       .  A
C3403      C3408   1.411       .  A
C3404      H3413   1.084       .  S
C3404      C3405   1.404       .  A
C3405      C3406   1.419       .  A
C3406      C3407   1.408       .  A
C3407      H3414   1.084       .  S
C3407      C3408   1.400       .  A
C3408      S3410   1.804       .  S
S3409      H3412   1.407       .  S
S3410      H3411   1.405       .  S
C3415      C3416   1.399       .  A
C3415      C3420   1.409       .  A
C3416      H3425   1.084       .  S
C3416      C3417   1.393       .  A
C3417      C3418   1.415       .  A
C3417      S3421   1.798       .  S
C3418      C3419   1.405       .  A
C3419      H3426   1.083       .  S
C3419      C3420   1.389       .  A
C3420      S3422   1.806       .  S
S3421      H3424   1.407       .  S
S3422      H3423   1.407       .  S
C3427      C3428   1.413       .  A
C3427      C3432   1.412       .  A
C3428      H3437   1.082       .  S
C3428      C3429   1.401       .  A
C3429      C3430   1.408       .  A
C3429      S3433   1.808       .  S
C3430      C4637   1.410       .  A
C3431      H3438   1.084       .  S
C3431      C4636   1.410       .  A
C3431      C4638   1.405       .  A
C3432      C4637   1.405       .  A
C3432      S4640   1.802       .  S
S3433      H3436   1.407       .  S
S3434      C4638   1.802       .  S
S3434      H3435   1.408       .  S
C3439      C3440   1.403       .  A
C3439      C3444   1.410       .  A
C3440      H3449   1.084       .  S
C3440      C3441   1.393       .  A
C3441      C3442   1.407       .  A
C3441      S3445   1.804       .  S
C3442      C3443   1.404       .  A
C3443      H3450   1.084       .  S
C3443      C3444   1.399       .  A
C3444      S3446   1.801       .  S
S3445      H3448   1.405       .  S
S3446      H3447   1.404       .  S
C3451      C3452   1.399       .  A
C3451      C3456   1.410       .  A
C3452      H3461   1.083       .  S
C3452      C3453   1.404       .  A
C3453      C3454   1.425       .  A
C3453      S3457   1.811       .  S
C3454      C3455   1.407       .  A
C3455      H3462   1.084       .  S
C3455      C3456   1.397       .  A
C3456      S3458   1.804       .  S
S3457      H3460   1.407       .  S
S3458      H3459   1.406       .  S
C3463      C3464   1.410       .  A
C3463      C3468   1.416       .  A
C3464      H3473   1.082       .  S
C3464      C3465   1.400       .  A
C3465      C3466   1.411       .  A
C3465      S3469   1.805       .  S
C3466      C3467   1.407       .  A
C3467      H3474   1.084       .  S
C3467      C3468   1.407       .  A
C3468      S3470   1.802       .  S
S3469      H3472   1.405       .  S
S3470      H3471   1.407       .  S
C3475      C3476   1.405       .  A
C3475      C3480   1.416       .  A
C3476      H3485   1.084       .  S
C3476      C3477   1.394       .  A
C3477      C3478   1.412       .  A
C3477      S3481   1.806       .  S
C3478      C3479   1.404       .  A
C3479      H3486   1.083       .  S
C3479      C3480   1.408       .  A
C3480      S3482   1.806       .  S
S3481      H3484   1.407       .  S
S3482      H3483   1.407       .  S
C3487      C3488   1.401       .  A
C3487      C3492   1.416   1_455  A
C3488      H3497   1.084       .  S
C3488      C3489   1.400   1_455  A
C3489      C3490   1.413       .  A
C3489      S3493   1.803       .  S
C3490      C3491   1.397       .  A
C3491      H3498   1.084       .  S
C3491      C3492   1.392       .  A
S3493      H3496   1.404       .  S
S3494      H3495   1.407       .  S
C3499      C3500   1.403       .  A
C3499      C3504   1.411       .  A
C3500      H3509   1.083   1_655  S
C3500      C3501   1.404   1_655  A
C3501      C3502   1.412       .  A
C3501      S3505   1.806       .  S
C3502      C3503   1.406   1_455  A
C3503      H3510   1.084       .  S
C3503      C3504   1.397       .  A
C3504      S3506   1.806       .  S
S3505      H3508   1.407       .  S
S3506      H3507   1.401       .  S
C3511      C3512   1.408       .  A
C3511      C3516   1.422       .  A
C3512      H4727   1.083       .  S
C3512      C3513   1.403       .  A
C3513      C3514   1.414       .  A
C3513      S4723   1.804       .  S
C3514      C3515   1.402       .  A
C3515      H3522   1.083       .  S
C3515      C3516   1.405       .  A
C3516      S3518   1.810       .  S
S3517      C4719   1.805       .  S
S3517      H4726   1.407       .  S
S3518      H3519   1.407       .  S
H3520      S4723   1.407       .  S
H3521      C4718   1.083       .  S
C3523      C3776   1.472   1_545  S
C3523      C3524   1.405   1_545  A
C3523      C4734   1.411       .  A
C3524      H3533   1.083       .  S
C3524      C3525   1.402   1_565  A
C3525      C3526   1.407       .  A
C3525      S3529   1.804   1_545  S
C3526      C3527   1.404       .  A
C3527      H3534   1.084       .  S
C3527      C4734   1.395       .  A
C3528      C4729   1.411       .  A
C3528      C4733   1.394       .  A
C3528      S3530   1.804       .  S
S3529      H3532   1.407       .  S
S3530      H3531   1.407       .  S
C3535      C3536   1.406       .  A
C3535      C3540   1.410       .  A
C3536      H3545   1.084       .  S
C3536      C3537   1.409       .  A
C3537      C3538   1.414       .  A
C3537      S3541   1.799       .  S
C3538      C3539   1.406       .  A
C3539      H3546   1.083       .  S
C3539      C3540   1.397       .  A
C3540      S3542   1.807       .  S
S3541      H3544   1.407       .  S
S3542      H3543   1.406       .  S
C3547      C3548   1.399       .  A
C3547      C3552   1.412       .  A
C3548      H3557   1.083       .  S
C3548      C3549   1.403       .  A
C3549      C3550   1.418       .  A
C3549      S3553   1.809   1_545  S
C3550      C3551   1.403       .  A
C3551      H3558   1.084       .  S
C3551      C3552   1.399       .  A
C3552      S3554   1.803       .  S
S3553      H3556   1.407       .  S
S3554      H3555   1.405       .  S
C3559      C3560   1.406       .  A
C3559      C4770   1.414       .  A
C3560      H3569   1.084       .  S
C3560      C3561   1.406       .  A
C3561      C4768   1.419       .  A
C3561      S3565   1.803       .  S
C3562      C4767   1.419       .  A
C3562      C3563   1.410       .  A
C3563      H3570   1.083       .  S
C3563      C3564   1.404       .  A
C3564      C4765   1.415       .  A
C3564      S3566   1.804       .  S
S3565      H3568   1.408       .  S
S3566      H3567   1.406       .  S
C3571      C3572   1.406       .  A
C3571      C3576   1.416       .  A
C3572      H3581   1.082       .  S
C3572      C3573   1.401       .  A
C3573      C3574   1.414       .  A
C3573      S3577   1.804       .  S
C3574      C3575   1.405       .  A
C3575      H3582   1.083       .  S
C3575      C3576   1.409       .  A
C3576      S3578   1.808       .  S
S3577      H3580   1.400       .  S
S3578      H3579   1.407       .  S
C3583      C3584   1.404       .  A
C3583      C3588   1.417       .  A
C3584      H3593   1.084       .  S
C3584      C3585   1.396       .  A
C3585      C3586   1.410       .  A
C3585      S3589   1.803       .  S
C3586      C3587   1.400       .  A
C3587      H3594   1.084       .  S
C3587      C3588   1.398       .  A
C3588      S3590   1.802       .  S
S3589      H3592   1.407       .  S
S3590      H3591   1.407       .  S
C3595      C3596   1.398       .  A
C3595      C3600   1.414       .  A
C3597      S3601   1.800       .  S
C3598      C3599   1.405   1_455  A
C3599      H3606   1.082       .  S
C3599      C3600   1.401       .  A
C3600      S3602   1.808       .  S
S3601      H3604   1.408       .  S
S3602      H3603   1.407       .  S
C3607      C3608   1.406       .  A
C3607      C3612   1.418       .  A
C3608      H3617   1.084       .  S
C3608      C3609   1.406       .  A
C3609      C3610   1.414       .  A
C3609      S3613   1.803       .  S
C3610      C3611   1.398       .  A
C3611      H3618   1.085       .  S
C3611      C3612   1.396       .  A
C3612      S3614   1.802       .  S
S3613      H3616   1.405       .  S
S3614      H3615   1.404       .  S
O3619     Mg3621   2.149       .  S
O3619     Mg3627   2.151       .  S
O3619      C3654   1.233       .  S
C3620      O3633   1.235       .  S
C3620      O3657   1.270       .  A
C3620      H3659   1.081       .  S
Mg3621     O3650   2.164       .  S
Mg3621     O3665   2.296       .  S
Mg3621     O3661   2.264       .  S
Mg3621     O3632   2.305       .  S
O3622     Mg3664   2.160       .  S
O3622     Mg3647   2.138       .  S
O3622      C3643   1.237       .  S
O3623      C3654   1.268       .  A
O3623     Mg3647   2.298       .  S
C3624      O3638   1.269       .  A
O3625      C3653   1.270       .  A
O3625     Mg3627   2.300       .  S
Mg3627     O3633   2.171       .  S
Mg3627     O3641   2.285       .  S
Mg3627     O3629   2.264       .  S
C3628      O3666   1.269       .  A
C3628      O3634   1.269       .  A
C3628      C4813   1.483       .  S
O3629      C3636   1.269       .  A
H3630      C3643   1.081       .  S
C3631      O3645   1.234       .  S
C3631      O3646   1.268       .  A
C3631      H3656   1.081       .  S
O3632      C3655   1.270       .  A
O3633     Mg3647   2.184       .  S
O3634     Mg3664   2.291       .  S
C3635      O3648   1.271       .  A
C3635      O3640   1.277       .  A
C3635      C4302   1.470       .  S
C3636      O3663   1.275       .  A
C3636      C4789   1.476       .  S
Mg3637     O3644   2.174       .  S
Mg3637     O3645   2.144       .  S
Mg3637     O3638   2.275       .  S
Mg3637     O3639   2.311       .  S
Mg3637     O3666   2.278       .  S
O3639      C3643   1.272       .  A
O3640     Mg3647   2.309       .  S
O3641      C3660   1.273       .  A
O3642      C3662   1.277       .  A
O3644     Mg3658   2.180       .  S
O3644      C3655   1.235       .  S
O3645     Mg3664   2.165       .  S
O3646     Mg3658   2.302       .  S
Mg3647     O3663   2.279       .  S
O3648     Mg3664   2.279       .  S
H3649      C3654   1.081       .  S
O3650     Mg3658   2.143       .  S
O3650      C3653   1.235       .  S
H3651      C3653   1.081       .  S
H3652      C3655   1.081       .  S
O3657     Mg3664   2.299       .  S
C3660      O3665   1.272       .  A
C3660      C4777   1.492       .  S
C3662      C4314   1.462       .  S
C3667      C4765   1.498       .  S
C3667      C3668   1.401       .  A
C3667      C3672   1.421       .  A
C3668      H3687   1.085       .  S
C3668      C3669   1.400       .  A
C3669      C4816   1.484       .  S
C3669      C3670   1.415       .  A
C3670      C3671   1.419       .  A
C3670      C3677   1.408       .  A
C3671      C3672   1.425       .  A
C3671      C3676   1.423       .  A
C3672      C3673   1.406       .  A
C3673      H3683   1.083       .  S
C3673      C3674   1.397       .  A
C3674      H3684   1.083       .  S
C3674      C3675   1.406       .  A
C3675      C3676   1.420       .  A
C3675      C3682   1.414       .  A
C3676      C3679   1.426       .  A
C3677      H3685   1.083       .  S
C3677      C3678   1.397       .  A
C3678      H3686   1.083       .  S
C3678      C3679   1.404       .  A
C3679      C3680   1.419       .  A
C3680      C4741   1.488       .  S
C3680      C3681   1.393       .  A
C3681      H3688   1.086       .  S
C3681      C3682   1.393       .  A
C3682      C4753   1.479       .  S
C3689      C4801   1.486       .  S
C3689      C3690   1.389       .  A
C3689      C3694   1.416       .  A
C3690      H3709   1.087       .  S
C3690      C3691   1.387       .  A
C3691      C4732   1.472       .  S
C3691      C3692   1.407       .  A
C3692      C3693   1.421       .  A
C3692      C3699   1.402       .  A
C3693      C3694   1.427       .  A
C3693      C3698   1.418       .  A
C3694      C3695   1.403       .  A
C3695      H3705   1.082       .  S
C3695      C3696   1.394       .  A
C3696      H3706   1.082       .  S
C3696      C3697   1.407       .  A
C3697      C3698   1.418       .  A
C3697      C3704   1.411       .  A
C3698      C3701   1.424       .  A
C3699      H3707   1.083       .  S
C3699      C3700   1.394       .  A
C3700      H3708   1.082       .  S
C3700      C3701   1.407       .  A
C3701      C3702   1.418       .  A
C3702      C4720   1.493       .  S
C3702      C3703   1.400       .  A
C3703      H3710   1.085       .  S
C3703      C3704   1.398       .  A
C3704      C4705   1.480       .  S
O3711     Mg3713   2.138       .  S
O3711     Mg3719   2.163       .  S
O3711      C3746   1.234       .  S
C3712      O3725   1.233       .  S
C3712      O3749   1.268       .  A
C3712      H3751   1.081       .  S
Mg3713     O3742   2.165       .  S
Mg3713     O3757   2.336   1_565  S
Mg3713     O3724   2.299       .  S
O3714     Mg3756   2.170       .  S
O3714     Mg3739   2.149       .  S
O3714      C3735   1.233       .  S
O3715      C3746   1.267       .  A
O3715     Mg3739   2.288       .  S
C3716      O3718   1.270       .  A
C3716      O3730   1.273       .  A
C3716      C4681   1.484       .  S
O3717      C3745   1.267       .  A
O3717     Mg3719   2.290       .  S
O3718     Mg3750   2.244       .  S
Mg3719     O3725   2.170       .  S
Mg3719     O3733   2.278       .  S
Mg3719     O3721   2.296       .  S
C3720      O3758   1.273       .  A
C3720      O3726   1.280       .  A
C3720      C4669   1.496       .  S
O3721      C3728   1.273       .  A
H3722      C3735   1.081       .  S
C3723      O3737   1.235       .  S
C3723      O3738   1.270       .  A
C3723      H3748   1.081       .  S
O3724      C3747   1.269       .  A
O3725     Mg3739   2.173       .  S
O3726     Mg3756   2.339       .  S
C3727      O3740   1.277       .  A
C3727      O3732   1.270       .  A
C3727      C4313   1.472       .  S
Mg3729     O3736   2.167       .  S
Mg3729     O3737   2.167       .  S
Mg3729     O3730   2.302       .  S
Mg3729     O3731   2.296       .  S
Mg3729     O3758   2.259       .  S
O3731      C3735   1.267       .  A
O3733      C3752   1.275       .  A
O3734      C3754   1.273       .  A
O3736     Mg3750   2.170       .  S
O3736      C3747   1.235       .  S
O3737     Mg3756   2.157       .  S
O3738     Mg3750   2.301       .  S
H3741      C3746   1.081       .  S
O3742     Mg3750   2.145       .  S
O3742      C3745   1.234       .  S
H3743      C3745   1.081       .  S
H3744      C3747   1.081       .  S
O3749     Mg3756   2.298       .  S
C3752      O3757   1.280   1_565  A
C3752      C4768   1.501   1_565  S
O3753      C3754   1.274       .  A
C3754      C4340   1.468       .  S
O3759     Mg3761   2.150       .  S
O3759     Mg3767   2.151       .  S
O3759      C3794   1.235       .  S
C3760      O3773   1.232       .  S
C3760      O3797   1.267       .  A
C3760      H3799   1.081       .  S
Mg3761     O3790   2.167       .  S
Mg3761     O3805   2.312       .  S
Mg3761     O3801   2.272       .  S
Mg3761     O3772   2.286       .  S
O3762     Mg3804   2.175       .  S
O3762     Mg3787   2.155       .  S
O3762      C3783   1.236       .  S
O3763      C3794   1.270       .  A
O3763     Mg3787   2.304       .  S
C3764      O3766   1.269       .  A
C3764      O3778   1.271       .  A
C3764      C4645   1.468       .  S
O3765      C3793   1.268       .  A
O3765     Mg3767   2.289       .  S
O3766     Mg3798   2.232       .  S
Mg3767     O3773   2.148       .  S
Mg3767     O3781   2.226       .  S
Mg3767     O3769   2.258       .  S
C3768      O3806   1.268       .  A
C3768      O3774   1.282   1_565  A
C3768      C4633   1.495   1_565  S
O3769      C3776   1.266       .  A
H3770      C3783   1.081   1_545  S
C3771      O3785   1.235       .  S
C3771      O3786   1.270       .  A
C3771      H3796   1.081       .  S
O3772      C3795   1.265       .  A
O3773     Mg3787   2.159       .  S
O3774     Mg3804   2.353   1_545  S
C3775      O3780   1.275       .  A
C3775      C4338   1.472       .  S
Mg3777     O3784   2.138       .  S
Mg3777     O3785   2.163       .  S
Mg3777     O3778   2.295       .  S
Mg3777     O3779   2.293       .  S
Mg3777     O3806   2.217       .  S
O3779      C3783   1.269       .  A
O3781      C3800   1.264       .  A
O3782      C3802   1.273       .  A
O3782     Mg3798   2.303       .  S
O3784     Mg3798   2.162       .  S
O3784      C3795   1.232       .  S
O3785     Mg3804   2.161       .  S
O3786     Mg3798   2.300       .  S
O3788     Mg3804   2.294   1_545  S
H3789      C3794   1.081       .  S
O3790     Mg3798   2.126       .  S
O3790      C3793   1.235       .  S
H3791      C3793   1.081       .  S
H3792      C3795   1.081       .  S
O3797     Mg3804   2.296       .  S
C3800      O3805   1.276       .  A
C3800      C4660   1.492       .  S
O3801      C3802   1.274       .  A
C3802      C4306   1.466       .  S
C3807      C4696   1.468       .  S
C3807      C3808   1.395       .  A
C3807      C3812   1.411       .  A
C3808      H3827   1.086       .  S
C3808      C3809   1.392       .  A
C3809      C4657   1.483       .  S
C3809      C3810   1.409       .  A
C3810      C3811   1.424       .  A
C3810      C3817   1.401       .  A
C3811      C3812   1.415       .  A
C3811      C3816   1.415       .  A
C3812      C3813   1.408       .  A
C3813      H3823   1.083       .  S
C3813      C3814   1.399       .  A
C3814      H3824   1.083       .  S
C3814      C3815   1.404       .  A
C3815      C3816   1.425       .  A
C3815      C3822   1.418       .  A
C3816      C3819   1.416       .  A
C3817      H3825   1.082       .  S
C3817      C3818   1.387       .  A
C3818      H3826   1.081       .  S
C3818      C3819   1.406       .  A
C3819      C3820   1.404       .  A
C3820      C4621   1.467       .  S
C3820      C3821   1.392       .  A
C3821      H3828   1.086       .  S
C3821      C3822   1.391       .  A
C3822      C4609   1.484       .  S
O3829     Mg3831   2.158       .  S
O3829      C3864   1.236       .  S
C3830      O3843   1.234       .  S
C3830      O3867   1.270   1_556  A
C3830      H3869   1.081       .  S
Mg3831     O3871   2.282       .  S
Mg3831     O3842   2.307       .  S
O3832     Mg3857   2.156   1_554  S
O3832      C3853   1.235       .  S
O3833      C3864   1.272       .  A
O3833     Mg3857   2.310       .  S
C3834      O3836   1.275       .  A
C3834      O3848   1.271       .  A
C3834      C4717   1.496       .  S
O3835      C3863   1.270       .  A
O3835     Mg3837   2.301       .  S
Mg3837     O3843   2.175       .  S
Mg3837     O3851   2.301       .  S
Mg3837     O3839   2.305       .  S
C3838      O3876   1.271       .  A
C3838      O3844   1.273       .  A
C3838      C4756   1.486       .  S
O3839      C3846   1.276       .  A
H3840      C3853   1.081       .  S
C3841      O3855   1.236       .  S
C3841      O3856   1.272       .  A
C3841      H3866   1.081       .  S
O3842      C3865   1.270   1_556  A
C3845      O3858   1.273       .  A
C3845      O3850   1.279   1_554  A
C3846      O3873   1.273   1_565  A
C3846      C4588   1.501       .  S
Mg3847     O3854   2.159       .  S
Mg3847     O3848   2.284       .  S
Mg3847     O3849   2.301       .  S
Mg3847     O3876   2.276       .  S
O3849      C3853   1.270       .  A
O3851      C3870   1.275       .  A
O3852      C3872   1.277   1_554  A
O3854      C3865   1.235       .  S
O3855     Mg3874   2.167       .  S
O3856     Mg3868   2.309       .  S
O3858     Mg3874   2.298       .  S
H3859      C3864   1.081       .  S
O3860     Mg3868   2.157   1_556  S
O3860      C3863   1.235       .  S
H3861      C3863   1.081       .  S
H3862      C3865   1.081       .  S
O3867     Mg3874   2.307       .  S
C3870      O3875   1.273       .  A
C3870      C4600   1.489       .  S
O3871      C3872   1.271       .  A
O3877     Mg3879   2.134       .  S
O3877     Mg3885   2.120       .  S
O3877      C3912   1.237       .  S
C3878      O3891   1.230       .  S
C3878      O3915   1.263       .  A
C3878      H3917   1.081       .  S
Mg3879     O3908   2.176       .  S
Mg3879     O3923   2.296       .  S
Mg3879     O3919   2.242       .  S
Mg3879     O3890   2.304   1_556  S
O3880     Mg3922   2.189       .  S
O3880     Mg3905   2.140   1_554  S
O3880      C3901   1.237       .  S
O3881      C3912   1.274       .  A
O3881     Mg3905   2.322       .  S
C3882      O3884   1.272       .  A
C3882      O3896   1.265       .  A
C3882      C4744   1.491       .  S
O3883      C3911   1.276       .  A
O3883     Mg3885   2.317       .  S
O3884     Mg3916   2.337       .  S
Mg3885     O3891   2.128       .  S
Mg3885     O3899   2.229       .  S
Mg3885     O3887   2.273       .  S
C3886      O3924   1.266       .  A
C3886      O3892   1.269       .  A
C3886      C4624   1.476       .  S
O3887      C3894   1.265       .  A
H3888      C3901   1.081       .  S
C3889      O3903   1.238       .  S
C3889      O3904   1.276       .  A
C3889      H3914   1.081       .  S
O3890      C3913   1.268       .  A
O3891     Mg3905   2.132       .  S
O3892     Mg3922   2.249       .  S
C3893      O3906   1.272       .  A
C3893      O3898   1.277   1_554  A
C3893      C4292   1.467       .  S
C3894      O3921   1.271       .  A
C3894      C4561   1.491       .  S
Mg3895     O3902   2.151       .  S
Mg3895     O3903   2.152       .  S
Mg3895     O3896   2.264       .  S
Mg3895     O3897   2.297       .  S
Mg3895     O3924   2.237       .  S
O3897      C3901   1.271       .  A
O3898     Mg3905   2.312       .  S
O3899      C3918   1.264       .  A
O3900      C3920   1.277   1_554  A
O3900     Mg3916   2.320       .  S
O3902     Mg3916   2.137       .  S
O3902      C3913   1.232       .  S
O3903     Mg3922   2.157       .  S
O3904     Mg3916   2.332       .  S
Mg3905     O3921   2.298       .  S
O3906     Mg3922   2.281       .  S
H3907      C3912   1.081       .  S
O3908     Mg3916   2.164   1_556  S
O3908      C3911   1.240       .  S
H3909      C3911   1.081       .  S
H3910      C3913   1.081       .  S
O3915     Mg3922   2.282   1_556  S
C3918      O3923   1.272       .  A
C3918      C4576   1.476       .  S
O3919      C3920   1.267       .  A
C3920      C4265   1.455       .  S
O3925     Mg3927   2.154       .  S
O3925      C3960   1.238       .  S
C3926      O3939   1.234       .  S
C3926      O3963   1.269       .  A
C3926      H3965   1.081       .  S
Mg3927     O3967   2.284       .  S
Mg3927     O3938   2.296       .  S
O3928     Mg3953   2.157   1_556  S
O3928      C3949   1.236       .  S
O3929      C3960   1.275       .  A
O3929     Mg3953   2.324       .  S
C3930      O3932   1.271       .  A
C3930      O3944   1.272       .  A
C3930      C4537   1.491       .  S
O3931      C3959   1.271       .  A
O3931     Mg3933   2.303       .  S
Mg3933     O3939   2.169       .  S
Mg3933     O3947   2.260       .  S
Mg3933     O3935   2.288   1_655  S
C3934      O3972   1.269       .  A
C3934      O3940   1.281       .  A
C3934      C4549   1.499       .  S
O3935      C3942   1.269       .  A
H3936      C3949   1.081       .  S
C3937      O3951   1.237       .  S
C3937      O3952   1.272       .  A
C3937      H3962   1.081       .  S
O3938      C3961   1.267   1_554  A
C3941      O3954   1.276       .  A
C3941      O3946   1.274   1_556  A
C3942      O3969   1.268       .  A
C3942      C4708   1.486       .  S
Mg3943     O3950   2.149       .  S
Mg3943     O3944   2.291       .  S
Mg3943     O3945   2.300       .  S
Mg3943     O3972   2.256       .  S
O3945      C3949   1.270       .  A
O3947      C3966   1.271       .  A
O3948      C3968   1.272   1_556  A
O3950      C3961   1.233       .  S
O3951     Mg3970   2.157       .  S
O3952     Mg3964   2.304       .  S
O3954     Mg3970   2.294   1_455  S
H3955      C3960   1.081       .  S
O3956     Mg3964   2.156   1_554  S
O3956      C3959   1.237       .  S
H3957      C3959   1.081       .  S
H3958      C3961   1.081       .  S
O3963     Mg3970   2.306   1_554  S
C3966      O3971   1.279       .  A
C3966      C4612   1.495       .  S
O3967      C3968   1.276       .  A
O3973     Mg3975   2.166       .  S
O3973     Mg3981   2.143       .  S
O3973      C4008   1.234       .  S
C3974      O3987   1.236       .  S
C3974      O4011   1.272       .  A
C3974      H4013   1.081       .  S
Mg3975     O4004   2.152       .  S
Mg3975     O4019   2.318       .  S
Mg3975     O4015   2.278       .  S
Mg3975     O3986   2.309       .  S
O3976     Mg4018   2.151       .  S
O3976     Mg4001   2.143       .  S
O3976      C3997   1.236       .  S
O3977      C4008   1.271       .  A
O3977     Mg4001   2.310       .  S
C3978      O3992   1.269       .  A
O3979      C4007   1.272       .  A
O3979     Mg3981   2.311       .  S
Mg3981     O3987   2.191       .  S
Mg3981     O3995   2.302       .  S
Mg3981     O3983   2.281       .  S
C3982      O4020   1.272       .  A
C3982      O3988   1.270       .  A
C3982      C4501   1.496       .  S
O3983      C3990   1.271       .  A
H3984      C3997   1.081       .  S
C3985      O3999   1.234       .  S
C3985      O4000   1.269       .  A
C3985      H4010   1.081       .  S
O3986      C4009   1.272       .  A
O3987     Mg4001   2.180       .  S
O3988     Mg4018   2.297       .  S
C3989      O4002   1.266       .  A
C3989      O3994   1.280       .  A
C3989      C4354   1.469       .  S
C3990      O4017   1.274       .  A
C3990      C4525   1.475       .  S
Mg3991     O3998   2.182       .  S
Mg3991     O3999   2.143       .  S
Mg3991     O3992   2.259       .  S
Mg3991     O3993   2.306       .  S
Mg3991     O4020   2.295       .  S
O3993      C3997   1.271       .  A
O3994     Mg4001   2.342       .  S
O3995      C4014   1.272       .  A
O3996      C4016   1.280       .  A
O3998     Mg4012   2.182       .  S
O3998      C4009   1.236       .  S
O3999     Mg4018   2.147       .  S
O4000     Mg4012   2.303       .  S
Mg4001     O4017   2.272       .  S
O4002     Mg4018   2.250       .  S
H4003      C4008   1.081       .  S
O4004     Mg4012   2.161       .  S
O4004      C4007   1.236       .  S
H4005      C4007   1.081       .  S
H4006      C4009   1.081       .  S
O4011     Mg4018   2.312       .  S
C4014      O4019   1.275       .  A
C4014      C4513   1.509       .  S
C4016      C4386   1.472       .  S
C4021      C4573   1.471       .  S
C4021      C4022   1.389       .  A
C4021      C4026   1.408       .  A
C4022      H4041   1.087       .  S
C4022      C4023   1.390       .  A
C4023      C4552   1.486       .  S
C4023      C4024   1.420       .  A
C4024      C4025   1.427       .  A
C4024      C4031   1.403       .  A
C4025      C4026   1.419       .  A
C4025      C4030   1.421       .  A
C4026      C4027   1.404       .  A
C4027      H4037   1.083       .  S
C4027      C4028   1.394       .  A
C4028      H4038   1.083       .  S
C4028      C4029   1.405       .  A
C4029      C4030   1.425       .  A
C4029      C4036   1.416       .  A
C4030      C4033   1.419       .  A
C4031      H4039   1.083       .  S
C4031      C4032   1.399       .  A
C4032      H4040   1.082       .  S
C4032      C4033   1.410       .  A
C4033      C4034   1.416       .  A
C4034      C4480   1.482       .  S
C4034      C4035   1.401       .  A
C4035      H4042   1.085       .  S
C4035      C4036   1.398       .  A
C4036      C4504   1.493       .  S
C4043      C4585   1.488       .  S
C4043      C4044   1.401       .  A
C4043      C4048   1.418       .  A
C4044      H4063   1.085       .  S
C4044      C4045   1.399       .  A
C4045      C4540   1.487       .  S
C4045      C4046   1.411       .  A
C4046      C4047   1.422       .  A
C4046      C4053   1.406       .  A
C4047      C4048   1.421       .  A
C4047      C4052   1.418       .  A
C4048      C4049   1.409       .  A
C4049      H4059   1.082       .  S
C4049      C4050   1.399       .  A
C4050      H4060   1.083       .  S
C4050      C4051   1.403       .  A
C4051      C4052   1.424       .  A
C4051      C4058   1.417       .  A
C4052      C4055   1.420       .  A
C4053      H4061   1.082       .  S
C4053      C4054   1.388       .  A
C4054      H4062   1.083       .  S
C4054      C4055   1.401       .  A
C4055      C4056   1.404       .  A
C4056      C4465   1.467       .  S
C4056      C4057   1.385       .  A
C4057      H4064   1.087       .  S
C4057      C4058   1.389       .  A
C4058      C4489   1.478       .  S
O4065     Mg4067   2.155       .  S
O4065     Mg4073   2.151       .  S
O4065      C4100   1.236       .  S
C4066      O4079   1.234       .  S
C4066      O4103   1.269       .  A
C4066      H4105   1.081       .  S
Mg4067     O4096   2.183       .  S
Mg4067     O4111   2.288       .  S
Mg4067     O4078   2.290       .  S
O4068     Mg4110   2.180       .  S
O4068     Mg4093   2.135       .  S
O4068      C4089   1.235       .  S
O4069      C4100   1.272       .  A
O4069     Mg4093   2.316       .  S
C4070      O4072   1.279       .  A
C4070      O4084   1.267       .  A
C4070      C4441   1.493       .  S
O4071      C4099   1.271       .  A
O4071     Mg4073   2.301       .  S
O4072     Mg4104   2.320       .  S
Mg4073     O4079   2.171       .  S
Mg4073     O4087   2.298       .  S
Mg4073     O4075   2.304       .  S
C4074      O4112   1.271       .  A
C4074      O4080   1.274       .  A
C4074      C4453   1.491       .  S
O4075      C4082   1.275       .  A
H4076      C4089   1.081       .  S
C4077      O4091   1.234       .  S
C4077      O4092   1.268       .  A
C4077      H4102   1.081       .  S
O4078      C4101   1.267       .  A
O4079     Mg4093   2.151       .  S
O4080     Mg4110   2.294       .  S
C4081      O4094   1.270       .  A
C4081      O4086   1.279       .  A
C4081      C4361   1.469       .  S
C4082      O4109   1.273       .  A
C4082      C4477   1.495       .  S
Mg4083     O4090   2.149       .  S
Mg4083     O4091   2.158       .  S
Mg4083     O4084   2.244       .  S
Mg4083     O4085   2.288       .  S
Mg4083     O4112   2.276       .  S
O4085      C4089   1.268       .  A
O4087      C4106   1.274       .  A
O4088      C4108   1.278       .  A
O4090     Mg4104   2.176       .  S
O4090      C4101   1.233       .  S
O4091     Mg4110   2.140       .  S
O4092     Mg4104   2.294       .  S
Mg4093     O4109   2.279       .  S
H4095      C4100   1.081       .  S
O4096     Mg4104   2.155       .  S
O4096      C4099   1.236       .  S
H4097      C4099   1.081       .  S
H4098      C4101   1.081       .  S
O4103     Mg4110   2.301       .  S
C4106      O4111   1.272       .  A
O4107      C4108   1.271       .  A
C4108      C4388   1.466       .  S
O4113     Mg4115   2.149       .  S
O4113     Mg4121   2.163       .  S
O4113      C4148   1.236       .  S
C4114      O4127   1.232       .  S
C4114      O4151   1.267       .  A
C4114      H4153   1.081       .  S
Mg4115     O4144   2.165       .  S
Mg4115     O4159   2.327       .  S
Mg4115     O4155   2.285       .  S
Mg4115     O4126   2.293       .  S
O4116     Mg4158   2.161       .  S
O4116     Mg4141   2.147       .  S
O4116      C4137   1.234       .  S
O4117      C4148   1.270       .  A
O4117     Mg4141   2.298       .  S
C4118      O4120   1.269       .  A
C4118      O4132   1.267       .  A
C4118      C4405   1.467       .  S
O4119      C4147   1.268       .  A
O4119     Mg4121   2.285       .  S
O4120     Mg4152   2.242       .  S
Mg4121     O4127   2.146       .  S
Mg4121     O4135   2.220       .  S
Mg4121     O4123   2.243       .  S
C4122      O4160   1.269       .  A
C4122      O4128   1.281       .  A
C4122      C4417   1.501       .  S
O4123      C4130   1.265       .  A
H4124      C4137   1.081   1_455  S
C4125      O4139   1.237       .  S
C4125      O4140   1.273       .  A
C4125      H4150   1.081       .  S
O4126      C4149   1.266       .  A
O4127     Mg4141   2.163       .  S
O4128     Mg4158   2.355       .  S
C4129      O4142   1.277       .  A
C4129      O4134   1.272       .  A
C4129      C4362   1.461       .  S
Mg4131     O4138   2.154       .  S
Mg4131     O4139   2.167       .  S
Mg4131     O4132   2.265       .  S
Mg4131     O4133   2.289       .  S
Mg4131     O4160   2.237       .  S
O4133      C4137   1.267       .  A
O4135      C4154   1.267       .  A
O4136      C4156   1.276       .  A
O4136     Mg4152   2.323       .  S
O4138     Mg4152   2.159       .  S
O4138      C4149   1.232       .  S
O4139     Mg4158   2.165       .  S
O4140     Mg4152   2.312       .  S
H4143      C4148   1.081       .  S
O4144     Mg4152   2.130       .  S
O4144      C4147   1.235       .  S
H4145      C4147   1.081       .  S
H4146      C4149   1.081       .  S
O4151     Mg4158   2.300       .  S
C4154      O4159   1.278       .  A
C4154      C4393   1.487       .  S
O4155      C4156   1.277       .  A
C4156      C4350   1.472       .  S
C4161      C4597   1.486       .  S
C4161      C4162   1.395       .  A
C4161      C4166   1.418       .  A
C4162      H4181   1.086       .  S
C4162      C4163   1.396       .  A
C4163      C4564   1.480       .  S
C4163      C4164   1.412       .  A
C4164      C4165   1.420       .  A
C4164      C4171   1.405       .  A
C4165      C4166   1.422       .  A
C4165      C4170   1.418       .  A
C4166      C4167   1.406       .  A
C4167      H4177   1.083       .  S
C4167      C4168   1.402       .  A
C4168      H4178   1.082       .  S
C4168      C4169   1.407       .  A
C4169      C4170   1.420       .  A
C4169      C4176   1.417       .  A
C4170      C4173   1.421       .  A
C4171      H4179   1.082       .  S
C4171      C4172   1.394       .  A
C4172      H4180   1.082       .  S
C4172      C4173   1.405       .  A
C4173      C4174   1.414       .  A
C4174      C4396   1.483       .  S
C4174      C4175   1.395       .  A
C4175      H4182   1.086       .  S
C4175      C4176   1.396       .  A
C4176      C4432   1.484       .  S
C4183      C4780   1.492       .  S
C4183      C4184   1.401       .  A
C4183      C4188   1.417       .  A
C4184      H4203   1.085       .  S
C4184      C4185   1.400       .  A
C4185      C4672   1.492       .  S
C4185      C4186   1.420       .  A
C4186      C4187   1.422       .  A
C4186      C4193   1.408       .  A
C4187      C4188   1.423       .  A
C4188      C4189   1.406       .  A
C4189      H4199   1.083       .  S
C4190      H4200   1.083       .  S
C4190      C4191   1.405       .  A
C4191      C4192   1.422       .  A
C4191      C4198   1.413       .  A
C4192      C4195   1.426       .  A
C4193      H4201   1.082       .  S
C4194      H4202   1.083       .  S
C4194      C4195   1.405   1_455  A
C4195      C4196   1.423       .  A
C4196      C4420   1.494       .  S
C4196      C4197   1.396       .  A
C4197      H4204   1.086       .  S
C4197      C4198   1.392       .  A
C4198      C4456   1.481       .  S
C4205      C4648   1.470       .  S
C4205      C4206   1.387       .  A
C4205      C4210   1.405       .  A
C4206      H4225   1.087       .  S
C4206      C4207   1.391       .  A
C4207      C4792   1.472       .  S
C4207      C4208   1.411       .  A
C4208      C4209   1.421       .  A
C4208      C4215   1.405       .  A
C4209      C4210   1.421       .  A
C4209      C4214   1.412       .  A
C4210      C4211   1.403       .  A
C4211      H4221   1.083       .  S
C4211      C4212   1.391       .  A
C4212      H4222   1.083       .  S
C4212      C4213   1.403       .  A
C4213      C4214   1.421       .  A
C4213      C4220   1.404       .  A
C4214      C4217   1.422       .  A
C4215      H4223   1.083       .  S
C4215      C4216   1.398       .  A
C4216      H4224   1.083       .  S
C4216      C4217   1.405       .  A
C4217      C4218   1.411       .  A
C4218      C4528   1.474       .  S
C4218      C4219   1.389       .  A
C4219      H4226   1.087       .  S
C4219      C4220   1.388       .  A
C4220      C4408   1.467       .  S
C4227      C4684   1.484       .  S
C4227      C4228   1.395       .  A
C4227      C4232   1.416       .  A
C4228      H4247   1.086       .  S
C4228      C4229   1.392       .  A
C4229      C4636   1.492   1_565  S
C4229      C4230   1.418       .  A
C4230      C4231   1.427       .  A
C4230      C4237   1.401       .  A
C4231      C4232   1.421       .  A
C4232      C4233   1.406       .  A
C4233      H4243   1.082       .  S
C4234      H4244   1.082       .  S
C4234      C4235   1.407       .  A
C4235      C4236   1.426       .  A
C4235      C4242   1.424       .  A
C4236      C4239   1.421       .  A
C4237      H4245   1.083   1_565  S
C4238      H4246   1.081       .  S
C4238      C4239   1.409       .  A
C4239      C4240   1.417       .  A
C4240      C4444   1.493       .  S
C4240      C4241   1.401       .  A
C4241      H4248   1.085       .  S
C4241      C4242   1.404       .  A
C4242      C4516   1.507       .  S
O4249     Mg4257   2.172   1_554  S
O4249      C4284   1.233       .  S
C4250      O4263   1.234       .  S
C4250      O4287   1.269       .  A
C4250      H4289   1.081       .  S
Mg4251     O4280   2.170   1_554  S
Mg4251     O4295   2.324       .  S
Mg4251     O4291   2.274       .  S
Mg4251     O4262   2.300       .  S
O4252     Mg4294   2.179   1_554  S
O4252     Mg4277   2.189       .  S
O4252      C4273   1.234       .  S
O4253     Mg4277   2.296       .  S
C4254      O4256   1.275   1_545  A
O4255     Mg4257   2.303       .  S
O4256     Mg4288   2.288       .  S
Mg4257     O4271   2.259       .  S
Mg4257     O4259   2.312   1_556  S
C4258      O4264   1.277   1_554  A
H4260      C4273   1.081       .  S
C4261      O4275   1.234       .  S
C4261      H4286   1.081       .  S
O4262      C4285   1.269       .  A
O4263     Mg4277   2.171   1_556  S
O4264     Mg4294   2.330       .  S
C4265      O4278   1.270       .  A
C4265      O4270   1.273       .  A
C4266      O4293   1.277       .  A
Mg4267     O4275   2.167   1_554  S
Mg4267     O4268   2.298   1_554  S
Mg4267     O4269   2.306   1_655  S
Mg4267     O4296   2.270       .  S
O4270     Mg4277   2.301   1_556  S
O4272      C4292   1.274       .  A
O4272     Mg4288   2.316   1_554  S
O4274     Mg4288   2.168   1_554  S
O4274      C4285   1.234       .  S
O4276     Mg4288   2.295   1_545  S
Mg4277     O4293   2.311       .  S
O4278     Mg4294   2.244       .  S
H4279      C4284   1.081       .  S
O4280     Mg4288   2.179       .  S
O4280      C4283   1.234       .  S
H4281      C4283   1.081       .  S
H4282      C4285   1.081       .  S
O4287     Mg4294   2.301       .  S
C4290      O4295   1.277   1_556  A
O4291      C4292   1.274       .  A
O4297     Mg4299   2.161       .  S
O4297     Mg4305   2.189       .  S
O4297      C4332   1.233       .  S
C4298      O4311   1.233       .  S
C4298      O4335   1.267       .  A
C4298      H4337   1.081       .  S
Mg4299     O4328   2.177       .  S
Mg4299     O4343   2.306       .  S
Mg4299     O4339   2.281       .  S
Mg4299     O4310   2.292       .  S
O4300     Mg4342   2.172       .  S
O4300     Mg4325   2.149       .  S
O4300      C4321   1.233       .  S
O4301      C4332   1.267       .  A
O4301     Mg4325   2.289       .  S
C4302      O4304   1.270       .  A
C4302      O4316   1.277       .  A
O4303      C4331   1.265       .  A
O4303     Mg4305   2.289       .  S
O4304     Mg4336   2.273       .  S
Mg4305     O4311   2.155       .  S
Mg4305     O4319   2.288       .  S
Mg4305     O4307   2.298       .  S
C4306      O4344   1.275       .  A
C4306      O4312   1.275       .  A
O4307      C4314   1.275       .  A
H4308      C4321   1.081       .  S
C4309      O4323   1.234       .  S
C4309      O4324   1.268       .  A
C4309      H4334   1.081       .  S
O4310      C4333   1.267       .  A
O4311     Mg4325   2.185       .  S
O4312     Mg4342   2.302       .  S
C4313      O4326   1.277       .  A
C4313      O4318   1.268       .  A
C4314      O4341   1.267       .  A
Mg4315     O4322   2.152       .  S
Mg4315     O4323   2.189       .  S
Mg4315     O4316   2.311       .  S
Mg4315     O4317   2.292       .  S
Mg4315     O4344   2.276       .  S
O4317      C4321   1.267       .  A
O4318     Mg4325   2.268       .  S
O4319      C4338   1.276       .  A
O4320      C4340   1.272       .  A
O4320     Mg4336   2.283       .  S
O4322     Mg4336   2.179       .  S
O4322      C4333   1.233       .  S
O4323     Mg4342   2.172       .  S
O4324     Mg4336   2.296       .  S
Mg4325     O4341   2.248       .  S
O4326     Mg4342   2.304       .  S
H4327      C4332   1.081       .  S
O4328     Mg4336   2.153       .  S
O4328      C4331   1.232       .  S
H4329      C4331   1.081       .  S
H4330      C4333   1.081       .  S
O4335     Mg4342   2.295       .  S
C4338      O4343   1.275       .  A
O4339      C4340   1.275       .  A
O4345     Mg4347   2.156       .  S
O4345     Mg4353   2.162       .  S
O4345      C4380   1.233       .  S
C4346      O4359   1.233       .  S
C4346      O4383   1.267       .  A
C4346      H4385   1.081       .  S
Mg4347     O4376   2.179       .  S
Mg4347     O4391   2.297       .  S
Mg4347     O4387   2.268       .  S
Mg4347     O4358   2.307       .  S
O4348     Mg4390   2.188       .  S
O4348     Mg4373   2.149       .  S
O4348      C4369   1.234       .  S
O4349      C4380   1.268       .  A
O4349     Mg4373   2.300       .  S
C4350      O4352   1.272       .  A
C4350      O4364   1.276       .  A
O4351      C4379   1.269       .  A
O4351     Mg4353   2.301       .  S
O4352     Mg4384   2.291       .  S
Mg4353     O4359   2.170       .  S
Mg4353     O4367   2.308       .  S
Mg4353     O4355   2.308       .  S
C4354      O4392   1.276       .  A
C4354      O4360   1.269       .  A
O4355      C4362   1.277       .  A
H4356      C4369   1.081       .  S
C4357      O4371   1.234       .  S
C4357      O4372   1.271       .  A
C4357      H4382   1.081       .  S
O4358      C4381   1.271       .  A
O4359     Mg4373   2.177       .  S
O4360     Mg4390   2.283       .  S
C4361      O4374   1.271       .  A
C4361      O4366   1.271       .  A
C4362      O4389   1.269       .  A
Mg4363     O4370   2.183       .  S
Mg4363     O4371   2.161       .  S
Mg4363     O4364   2.316       .  S
Mg4363     O4365   2.300       .  S
Mg4363     O4392   2.302       .  S
O4365      C4369   1.269       .  A
O4366     Mg4373   2.278       .  S
O4367      C4386   1.277       .  A
O4368      C4388   1.275       .  A
O4368     Mg4384   2.299       .  S
O4370     Mg4384   2.162       .  S
O4370      C4381   1.235       .  S
O4371     Mg4390   2.170       .  S
O4372     Mg4384   2.313       .  S
Mg4373     O4389   2.260       .  S
O4374     Mg4390   2.291       .  S
H4375      C4380   1.081       .  S
O4376     Mg4384   2.161       .  S
O4376      C4379   1.234       .  S
H4377      C4379   1.081       .  S
H4378      C4381   1.081       .  S
O4383     Mg4390   2.295       .  S
C4386      O4391   1.271       .  A
O4387      C4388   1.269       .  A
C4393      C4394   1.412       .  A
C4393      C4398   1.412       .  A
C4394      H4403   1.082       .  S
C4394      C4395   1.400       .  A
C4395      C4396   1.406       .  A
C4395      S4399   1.807       .  S
C4396      C4397   1.406       .  A
C4397      H4404   1.084       .  S
C4397      C4398   1.402       .  A
C4398      S4400   1.802       .  S
S4399      H4402   1.407       .  S
S4400      H4401   1.407       .  S
C4405      C4406   1.403       .  A
C4405      C4410   1.411       .  A
C4406      H4415   1.084       .  S
C4406      C4407   1.393       .  A
C4407      C4408   1.408       .  A
C4407      S4411   1.803       .  S
C4408      C4409   1.403       .  A
C4409      H4416   1.084       .  S
C4409      C4410   1.396       .  A
C4410      S4412   1.800       .  S
S4411      H4414   1.404       .  S
S4412      H4413   1.401       .  S
C4417      C4418   1.413       .  A
C4417      C4422   1.414   1_655  A
C4418      H4427   1.080       .  S
C4418      C4419   1.405       .  A
C4419      C4420   1.408       .  A
C4419      S4423   1.808       .  S
C4421      H4428   1.084       .  S
S4423      H4426   1.407       .  S
S4424      H4425   1.407       .  S
C4429      C4430   1.402       .  A
C4429      C4434   1.420       .  A
C4430      H4439   1.084       .  S
C4430      C4431   1.401       .  A
C4431      C4432   1.416       .  A
C4431      S4435   1.805       .  S
C4432      C4433   1.399       .  A
C4433      H4440   1.084       .  S
C4433      C4434   1.402       .  A
S4435      H4438   1.406       .  S
S4436      H4437   1.407       .  S
C4441      C4442   1.406       .  A
C4441      C4446   1.423       .  A
C4442      H4451   1.083       .  S
C4442      C4443   1.404       .  A
C4443      C4444   1.416       .  A
C4444      C4445   1.400       .  A
C4445      H4452   1.084       .  S
C4445      C4446   1.396       .  A
C4446      S4448   1.806       .  S
S4447      H4450   1.407       .  S
S4448      H4449   1.408       .  S
C4453      C4454   1.409       .  A
C4453      C4458   1.419       .  A
C4454      H4463   1.084       .  S
C4454      C4455   1.398       .  A
C4455      C4456   1.408       .  A
C4455      S4459   1.804   1_655  S
C4456      C4457   1.403       .  A
C4457      H4464   1.084       .  S
C4457      C4458   1.403       .  A
C4458      S4460   1.802       .  S
S4459      H4462   1.405       .  S
S4460      H4461   1.407       .  S
C4465      C4466   1.402       .  A
C4465      C4470   1.408       .  A
C4466      H4475   1.084       .  S
C4466      C4467   1.395       .  A
C4467      C4468   1.411       .  A
C4468      C4469   1.403       .  A
C4469      H4476   1.084       .  S
C4469      C4470   1.393       .  A
C4470      S4472   1.803       .  S
S4471      H4474   1.407   1_455  S
S4472      H4473   1.404       .  S
C4477      C4478   1.410       .  A
C4478      H4487   1.083       .  S
C4479      C4480   1.411       .  A
C4479      S4483   1.806       .  S
C4480      C4481   1.403       .  A
C4481      H4488   1.084       .  S
C4481      C4482   1.402       .  A
C4482      S4484   1.802       .  S
S4483      H4486   1.403       .  S
C4489      C4490   1.406       .  A
C4489      C4494   1.411       .  A
C4490      H4499   1.084       .  S
C4490      C4491   1.401       .  A
C4491      C4492   1.411       .  A
C4491      S4495   1.798       .  S
C4493      H4500   1.084       .  S
S4495      H4498   1.407       .  S
S4496      H4497   1.403       .  S
C4501      C4502   1.408       .  A
C4501      C4506   1.419       .  A
C4502      H4511   1.084       .  S
C4502      C4503   1.403       .  A
C4503      C4504   1.414       .  A
C4503      S4507   1.806       .  S
C4504      C4505   1.404       .  A
C4505      H4512   1.084       .  S
C4505      C4506   1.406       .  A
C4506      S4508   1.803       .  S
S4507      H4510   1.403       .  S
S4508      H4509   1.407       .  S
C4513      C4514   1.410       .  A
C4513      C4518   1.422       .  A
C4514      H4523   1.083       .  S
C4514      C4515   1.404       .  A
C4515      C4516   1.417       .  A
C4515      S4519   1.804       .  S
C4516      C4517   1.406       .  A
C4517      H4524   1.083       .  S
C4517      C4518   1.408       .  A
C4518      S4520   1.800       .  S
S4519      H4522   1.407       .  S
S4520      H4521   1.408       .  S
C4525      C4526   1.404       .  A
C4525      C4530   1.415       .  A
C4526      H4535   1.083       .  S
C4526      C4527   1.400       .  A
C4527      C4528   1.408       .  A
C4527      S4531   1.807       .  S
C4528      C4529   1.402       .  A
C4529      H4536   1.084       .  S
C4529      C4530   1.399       .  A
C4530      S4532   1.804       .  S
S4531      H4534   1.407       .  S
S4532      H4533   1.407       .  S
C4537      C4538   1.409       .  A
C4537      C4542   1.419       .  A
C4538      H4547   1.083       .  S
C4538      C4539   1.398       .  A
C4539      C4540   1.410       .  A
C4539      S4543   1.804       .  S
C4540      C4541   1.403       .  A
C4541      H4548   1.084       .  S
C4541      C4542   1.400       .  A
S4543      H4546   1.406       .  S
S4544      H4545   1.408       .  S
C4549      C4550   1.408       .  A
C4549      C4554   1.423       .  A
C4550      H4559   1.083       .  S
C4550      C4551   1.402       .  A
C4551      C4552   1.412       .  A
C4551      S4555   1.803       .  S
C4552      C4553   1.401       .  A
C4553      H4560   1.083       .  S
C4553      C4554   1.407       .  A
C4554      S4556   1.810       .  S
S4555      H4558   1.407       .  S
S4556      H4557   1.406       .  S
C4561      C4562   1.412       .  A
C4561      C4566   1.416       .  A
C4562      H4571   1.083       .  S
C4562      C4563   1.397       .  A
C4563      C4564   1.407       .  A
C4563      S4567   1.805       .  S
C4564      C4565   1.404       .  A
C4565      H4572   1.083       .  S
C4565      C4566   1.404       .  A
C4566      S4568   1.808       .  S
S4567      H4570   1.405       .  S
S4568      H4569   1.407       .  S
C4573      C4574   1.401       .  A
C4573      C4578   1.408       .  A
C4574      H4583   1.085       .  S
C4574      C4575   1.396       .  A
C4575      C4576   1.417       .  A
C4575      S4579   1.804       .  S
C4576      C4577   1.405       .  A
C4577      H4584   1.084       .  S
C4577      C4578   1.397       .  A
C4578      S4580   1.803       .  S
S4579      H4582   1.407       .  S
S4580      H4581   1.406       .  S
C4585      C4586   1.403       .  A
C4585      C4590   1.410       .  A
C4586      H4595   1.083       .  S
C4586      C4587   1.407       .  A
C4587      C4588   1.421       .  A
C4587      S4591   1.810   1_565  S
C4588      C4589   1.412       .  A
C4589      C4590   1.400       .  A
C4590      S4592   1.805       .  S
S4591      H4594   1.407       .  S
S4592      H4593   1.405       .  S
C4597      C4598   1.399       .  A
C4597      C4602   1.416       .  A
C4598      H4607   1.084       .  S
C4598      C4599   1.402       .  A
C4599      C4600   1.421       .  A
C4600      C4601   1.403       .  A
C4601      H4608   1.084       .  S
C4601      C4602   1.403       .  A
C4602      S4604   1.804       .  S
S4603      H4606   1.407       .  S
S4604      H4605   1.406       .  S
C4609      C4610   1.403       .  A
C4609      C4614   1.411       .  A
C4610      H4619   1.084       .  S
C4610      C4611   1.404       .  A
C4611      C4612   1.419       .  A
C4612      C4613   1.408       .  A
C4613      H4620   1.084       .  S
C4613      C4614   1.401       .  A
C4614      S4616   1.803       .  S
S4615      H4618   1.407       .  S
S4616      H4617   1.405       .  S
C4621      C4622   1.399       .  A
C4621      C4626   1.408       .  A
C4622      H4631   1.084       .  S
C4622      C4623   1.393       .  A
C4623      C4624   1.415       .  A
C4623      S4627   1.798       .  S
C4624      C4625   1.405       .  A
C4625      H4632   1.083       .  S
C4625      C4626   1.388       .  A
C4626      S4628   1.805       .  S
S4627      H4630   1.407       .  S
S4628      H4629   1.407       .  S
C4633      C4634   1.413   1_545  A
C4633      C4638   1.412       .  A
C4634      H4643   1.081       .  S
C4634      C4635   1.402       .  A
C4635      C4636   1.409   1_565  A
C4635      S4639   1.808       .  S
C4637      H4644   1.084       .  S
S4639      H4642   1.407       .  S
S4640      H4641   1.408       .  S
C4645      C4646   1.403       .  A
C4645      C4650   1.410       .  A
C4646      H4655   1.084       .  S
C4646      C4647   1.393       .  A
C4647      C4648   1.408       .  A
C4647      S4651   1.804       .  S
C4648      C4649   1.404       .  A
C4649      H4656   1.084       .  S
C4649      C4650   1.399       .  A
C4650      S4652   1.800       .  S
S4651      H4654   1.405       .  S
S4652      H4653   1.404       .  S
C4657      C4658   1.398       .  A
C4657      C4662   1.411       .  A
C4658      H4667   1.083       .  S
C4658      C4659   1.403       .  A
C4659      C4660   1.426       .  A
C4659      S4663   1.811       .  S
C4660      C4661   1.407       .  A
C4661      H4668   1.084       .  S
C4661      C4662   1.397       .  A
C4662      S4664   1.805       .  S
S4663      H4666   1.407       .  S
S4664      H4665   1.406       .  S
C4669      C4670   1.410       .  A
C4669      C4674   1.417       .  A
C4670      H4679   1.083       .  S
C4670      C4671   1.400       .  A
C4671      C4672   1.411       .  A
C4671      S4675   1.805       .  S
C4672      C4673   1.407       .  A
C4673      H4680   1.084       .  S
C4673      C4674   1.406       .  A
C4674      S4676   1.803       .  S
S4675      H4678   1.406       .  S
S4676      H4677   1.407       .  S
C4681      C4682   1.405       .  A
C4681      C4686   1.416       .  A
C4682      H4691   1.084   1_565  S
C4682      C4683   1.393   1_565  A
C4683      C4684   1.412   1_545  A
C4683      S4687   1.806       .  S
C4684      C4685   1.404       .  A
C4685      H4692   1.083       .  S
C4685      C4686   1.408       .  A
C4686      S4688   1.806       .  S
S4687      H4690   1.406       .  S
S4688      H4689   1.407       .  S
C4693      C4694   1.401       .  A
C4693      C4698   1.416   1_455  A
C4694      H4703   1.084       .  S
C4694      C4695   1.399   1_455  A
C4695      C4696   1.412       .  A
C4695      S4699   1.803       .  S
C4696      C4697   1.397       .  A
C4697      H4704   1.085       .  S
C4697      C4698   1.392       .  A
S4699      H4702   1.404       .  S
S4700      H4701   1.407       .  S
C4705      C4706   1.402       .  A
C4705      C4710   1.411       .  A
C4706      H4715   1.083       .  S
C4706      C4707   1.403   1_655  A
C4707      C4708   1.415       .  A
C4707      S4711   1.807       .  S
C4708      C4709   1.408   1_455  A
C4709      H4716   1.084       .  S
C4709      C4710   1.398       .  A
C4710      S4712   1.807       .  S
S4711      H4714   1.407       .  S
S4712      H4713   1.404       .  S
C4717      C4718   1.408       .  A
C4717      C4722   1.421       .  A
C4718      C4719   1.402       .  A
C4719      C4720   1.414       .  A
C4720      C4721   1.402       .  A
C4721      H4728   1.083       .  S
C4721      C4722   1.405       .  A
C4722      S4724   1.811       .  S
S4724      H4725   1.407       .  S
C4729      C4730   1.405       .  A
C4730      H4739   1.083       .  S
C4730      C4731   1.402       .  A
C4731      C4732   1.407       .  A
C4731      S4735   1.805       .  S
C4732      C4733   1.403       .  A
C4733      H4740   1.084       .  S
C4734      S4736   1.804       .  S
S4735      H4738   1.407       .  S
S4736      H4737   1.407       .  S
C4741      C4742   1.407       .  A
C4741      C4746   1.410       .  A
C4742      H4751   1.083       .  S
C4742      C4743   1.410       .  A
C4743      C4744   1.415       .  A
C4743      S4747   1.800       .  S
C4744      C4745   1.406       .  A
C4745      H4752   1.083       .  S
C4745      C4746   1.397       .  A
C4746      S4748   1.806       .  S
S4747      H4750   1.407       .  S
S4748      H4749   1.406       .  S
C4753      C4754   1.399       .  A
C4753      C4758   1.412       .  A
C4754      H4763   1.083       .  S
C4754      C4755   1.403       .  A
C4755      C4756   1.419       .  A
C4755      S4759   1.809       .  S
C4756      C4757   1.404       .  A
C4757      H4764   1.084       .  S
C4757      C4758   1.400       .  A
C4758      S4760   1.803       .  S
S4759      H4762   1.407       .  S
S4760      H4761   1.405       .  S
C4765      C4766   1.406       .  A
C4766      H4775   1.084       .  S
C4766      C4767   1.407       .  A
C4767      S4771   1.803       .  S
C4768      C4769   1.410       .  A
C4769      H4776   1.083   1_545  S
C4769      C4770   1.403       .  A
C4770      S4772   1.804       .  S
S4771      H4774   1.408       .  S
S4772      H4773   1.406       .  S
C4777      C4778   1.406       .  A
C4777      C4782   1.416       .  A
C4778      H4787   1.082       .  S
C4778      C4779   1.401       .  A
C4779      C4780   1.414       .  A
C4779      S4783   1.803       .  S
C4780      C4781   1.405       .  A
C4781      H4788   1.083       .  S
C4781      C4782   1.409       .  A
C4782      S4784   1.807       .  S
S4783      H4786   1.400       .  S
S4784      H4785   1.407       .  S
C4789      C4790   1.403       .  A
C4789      C4794   1.417       .  A
C4790      H4799   1.084       .  S
C4790      C4791   1.397       .  A
C4791      C4792   1.410       .  A
C4791      S4795   1.803       .  S
C4792      C4793   1.400       .  A
C4793      H4800   1.084       .  S
C4793      C4794   1.398       .  A
C4794      S4796   1.803       .  S
S4795      H4798   1.407       .  S
S4796      H4797   1.407       .  S
C4801      C4802   1.397       .  A
C4801      C4806   1.414       .  A
C4803      S4807   1.800       .  S
C4804      C4805   1.405   1_455  A
C4805      H4812   1.082       .  S
C4805      C4806   1.401       .  A
C4806      S4808   1.808       .  S
S4807      H4810   1.408       .  S
S4808      H4809   1.407       .  S
C4813      C4814   1.405       .  A
C4813      C4818   1.418       .  A
C4814      H4823   1.084       .  S
C4814      C4815   1.406       .  A
C4815      C4816   1.414       .  A
C4815      S4819   1.803       .  S
C4816      C4817   1.398       .  A
C4817      H4824   1.085       .  S
C4817      C4818   1.395       .  A
C4818      S4820   1.801       .  S
S4819      H4822   1.405       .  S
S4820      H4821   1.403       .  S
