geometry optimzed in LAMMPS
_audit_creation_date              2020-11-30 
_audit_creation_method            'lammps2cif' 
_symmetry_space_group_name_H-M    'P1' 
_symmetry_Int_Tables_number       1 
_symmetry_cell_setting            triclinic 
loop_ 
_symmetry_equiv_pos_as_xyz 
  x,y,z 
_cell_length_a                    23.772358464528175 
_cell_length_b                    23.772150816094065 
_cell_length_c                    23.77273014894303 
_cell_angle_alpha                 89.99872541039066 
_cell_angle_beta                  89.99938550290291 
_cell_angle_gamma                 89.99736440752118 
loop_ 
_atom_site_label 
_atom_site_type_symbol 
_atom_site_fract_x 
_atom_site_fract_y 
_atom_site_fract_z 
_atom_site_charge 
C1          C  0.81478194  0.52987559  0.74504407     0.05340
C2          C  0.76847228  0.55869395  0.76866279     0.05340
C3          C  0.74484746  0.52986866  0.81496450     0.05340
C4          C  0.74485083  0.46977593  0.81496208     0.05340
C5          C  0.76847640  0.44095790  0.76865622     0.05340
C6          C  0.81478204  0.46978261  0.74503646     0.05340
C7          C  0.74820377  0.38305933  0.74838023     0.06190
C8          C  0.69927546  0.35780633  0.77168502    -0.09960
C9          C  0.67402406  0.30888130  0.74837712     0.03690
C10         C  0.69927634  0.28557898  0.69944751    -0.08490
C11         C  0.74820421  0.30888454  0.67419620     0.06180
C12         C  0.77150860  0.35781095  0.69944977    -0.07910
H13         H  0.67821290  0.37886294  0.80585802     0.11770
H14         H  0.67821627  0.25141090  0.67838554     0.09300
H15         H  0.80567807  0.37887281  0.67838902     0.09150
C16         C  0.58729746  0.31221450  0.81495833     0.05340
C17         C  0.61612357  0.28860707  0.76864705     0.05340
C18         C  0.58731065  0.24230145  0.74502082     0.05340
C19         C  0.52721807  0.24230354  0.74500769     0.05340
C20         C  0.49839110  0.28860483  0.76863610     0.05340
C21         C  0.52720348  0.31220897  0.81495491     0.05340
C22         C  0.36963728  0.46978145  0.81495352     0.05340
C23         C  0.36963444  0.52987573  0.81495490     0.05340
C24         C  0.34602537  0.55869836  0.76864216     0.05340
C25         C  0.29972121  0.52988190  0.74501781     0.05340
C26         C  0.29972484  0.46978880  0.74501181     0.05340
C27         C  0.34602864  0.44096450  0.76863940     0.05340
C28         C  0.36631559  0.30889198  0.67417966     0.06190
C29         C  0.34300790  0.35781855  0.69943339    -0.09960
C30         C  0.36630749  0.38306498  0.74836528     0.03690
C31         C  0.41523460  0.35780856  0.77167308    -0.08490
C32         C  0.44049119  0.30888280  0.74836284     0.06180
C33         C  0.41524405  0.28558482  0.69943064    -0.07910
H34         H  0.30883866  0.37888241  0.67837102     0.11770
H35         H  0.43629000  0.37886270  0.80584885     0.09300
H36         H  0.43630845  0.25141716  0.67836618     0.09150
C37         C  0.52719420  0.68742176  0.81495520     0.05340
C38         C  0.58728655  0.68741887  0.81495905     0.05340
C39         C  0.61611218  0.71104488  0.76865832     0.05340
C40         C  0.58729471  0.75735591  0.74504046     0.05340
C41         C  0.52720222  0.75735503  0.74502979     0.05340
C42         C  0.49837697  0.71104863  0.76864867     0.05340
C43         C  0.44047807  0.69077751  0.74837235     0.06190
C44         C  0.41522978  0.71408296  0.69944162    -0.09960
C45         C  0.36630256  0.69077965  0.67418859     0.03690
C46         C  0.34299633  0.64185166  0.69944038    -0.08490
C47         C  0.36629882  0.61659891  0.74837019     0.06180
C48         C  0.41522424  0.64184962  0.77167761    -0.07910
H49         H  0.43629221  0.74825216  0.67838036     0.11770
H50         H  0.30882773  0.62079217  0.67837899     0.09300
H51         H  0.43628064  0.62078640  0.80585074     0.09150
C52         C  0.58728036  0.75735506  0.36982180     0.05340
C53         C  0.61610452  0.71104660  0.34620565     0.05340
C54         C  0.58728685  0.68742491  0.29989812     0.05340
C55         C  0.52719400  0.68742423  0.29989223     0.05340
C56         C  0.49836869  0.71104945  0.34619397     0.05340
C57         C  0.52718760  0.75735681  0.36981395     0.05340
C58         C  0.36964612  0.75735771  0.52737130     0.05340
C59         C  0.36965178  0.75735795  0.58746351     0.05340
C60         C  0.34603054  0.71105295  0.61628770     0.05340
C61         C  0.29971931  0.68743793  0.58747148     0.05340
C62         C  0.29971743  0.68743418  0.52737932     0.05340
C63         C  0.34602464  0.71104996  0.49855503     0.05340
C64         C  0.44046930  0.69077648  0.36646857     0.06190
C65         C  0.41521977  0.71408160  0.41539808    -0.09960
C66         C  0.36629414  0.69077610  0.44065408     0.03690
C67         C  0.34298944  0.64184733  0.41540534    -0.08490
C68         C  0.36629141  0.61659641  0.36647481     0.06180
C69         C  0.41521680  0.64184867  0.34316542    -0.07910
H70         H  0.43628056  0.74825150  0.43645631     0.11770
H71         H  0.30882181  0.62078614  0.43646984     0.09300
H72         H  0.43627457  0.62078727  0.30899246     0.09150
C73         C  0.29971541  0.52987498  0.36982663     0.05340
C74         C  0.34601873  0.55869653  0.34620258     0.05340
C75         C  0.36962944  0.52988008  0.29988756     0.05340
C76         C  0.36963470  0.46978632  0.29988246     0.05340
C77         C  0.34602176  0.44096277  0.34619108     0.05340
C78         C  0.29971655  0.46978215  0.36981932     0.05340
C79         C  0.58729717  0.31221756  0.29989369     0.05340
C80         C  0.61611513  0.28860822  0.34620967     0.05340
C81         C  0.58729597  0.24230321  0.36983419     0.05340
C82         C  0.52720361  0.24230260  0.36982875     0.05340
C83         C  0.49838337  0.28860675  0.34619917     0.05340
C84         C  0.52720367  0.31221552  0.29988731     0.05340
C85         C  0.36630485  0.30888723  0.44064681     0.06190
C86         C  0.41523300  0.28558092  0.41539656    -0.09960
C87         C  0.44048229  0.30888228  0.36646640     0.03690
C88         C  0.41522749  0.35780877  0.34315599    -0.08490
C89         C  0.36629908  0.38306257  0.36646229     0.06180
C90         C  0.34299702  0.35781360  0.41539282    -0.07910
H91         H  0.43629663  0.25141233  0.43646113     0.11770
H92         H  0.43628582  0.37886592  0.30898159     0.09300
H93         H  0.30882676  0.37887592  0.43645474     0.09150
C94         C  0.29973402  0.31224290  0.58746084     0.05340
C95         C  0.34604423  0.28862271  0.61627925     0.05340
C96         C  0.36966396  0.24231366  0.58745929     0.05340
C97         C  0.36965845  0.24231087  0.52736782     0.05340
C98         C  0.34603640  0.28861854  0.49854809     0.05340
C99         C  0.29972986  0.31224017  0.52736908     0.05340
C100        C  0.81477361  0.52986897  0.36982511     0.05340
C101        C  0.76846575  0.55869236  0.34620641     0.05340
C102        C  0.74484554  0.52987361  0.29989905     0.05340
C103        C  0.74484640  0.46978036  0.29989503     0.05340
C104        C  0.76846996  0.44095609  0.34619880     0.05340
C105        C  0.81477613  0.46977575  0.36981945     0.05340
C106        C  0.74485955  0.24230268  0.58747858     0.05340
C107        C  0.76847610  0.28861301  0.61629513     0.05340
C108        C  0.81478015  0.31223457  0.58747060     0.05340
C109        C  0.81477812  0.31223083  0.52737835     0.05340
C110        C  0.76846993  0.28861004  0.49856193     0.05340
C111        C  0.74485363  0.24230248  0.52738647     0.05340
C112        C  0.74819635  0.38305690  0.36647450     0.06190
C113        C  0.69926802  0.35780554  0.34317155    -0.09960
C114        C  0.67401513  0.30888049  0.36648151     0.03690
C115        C  0.69926600  0.28557776  0.41541242    -0.08490
C116        C  0.74819548  0.30888103  0.44066091     0.06180
C117        C  0.77150148  0.35780665  0.41540434    -0.07910
H118        H  0.67820699  0.37886400  0.30899831     0.11770
H119        H  0.67820417  0.25141037  0.43647730     0.09300
H120        H  0.80567184  0.37886676  0.43646213     0.09150
C121        C  0.74483622  0.75734827  0.58748245     0.05340
C122        C  0.76845861  0.71104038  0.61630218     0.05340
C123        C  0.81476739  0.68742227  0.58748115     0.05340
C124        C  0.81476316  0.68741959  0.52738865     0.05340
C125        C  0.76845068  0.71103631  0.49857016     0.05340
C126        C  0.74483055  0.75734549  0.52739022     0.05340
C127        C  0.67400472  0.69077247  0.36648324     0.06190
C128        C  0.69926122  0.64184591  0.34317673    -0.09960
C129        C  0.74818922  0.61659183  0.36648313     0.03690
C130        C  0.77148957  0.64183983  0.41541441    -0.08490
C131        C  0.74818035  0.69076650  0.44066826     0.06180
C132        C  0.69925175  0.71407324  0.41541503    -0.07910
H133        H  0.67820461  0.62078834  0.30900487     0.11770
H134        H  0.80566025  0.62077711  0.43647614     0.09300
H135        H  0.67818708  0.74824240  0.43647736     0.09150
C136        C  0.67401354  0.69077301  0.74838693     0.06190
C137        C  0.69926286  0.71407708  0.69945724    -0.09960
C138        C  0.74819116  0.69077111  0.67420488     0.03690
C139        C  0.77150043  0.64184462  0.69945906    -0.08490
C140        C  0.74819740  0.61659411  0.74838890     0.06180
C141        C  0.69926806  0.64184565  0.77169364    -0.07910
H142        H  0.67819910  0.74824715  0.67839467     0.11770
H143        H  0.80567222  0.62078340  0.67839794     0.09300
H144        H  0.67820837  0.62078510  0.80586406     0.09150
O145        O  0.11606621  0.70311270  0.68301126    -0.71370
O146        O  0.99842408  0.62543092  0.76069171    -0.71400
O147        O  0.11607005  0.62543238  0.76069068    -0.71450
O148        O  0.99841985  0.70311098  0.68301162    -0.71500
O149        O  0.99910984  0.63653232  0.61671116    -0.71440
O150        O  0.11538781  0.55912748  0.69411618    -0.71410
O151        O  0.99911130  0.55912791  0.69411534    -0.71390
O152        O  0.11538753  0.63653222  0.61671257    -0.71450
Ni153      Ni  0.05724485  0.66676412  0.72434336     1.25410
Ni154      Ni  0.05724928  0.59546930  0.65305286     1.25360
C155        C  0.13900195  0.67805283  0.64126834     0.90810
C156        C  0.97549398  0.58368391  0.73563564     0.90740
C157        C  0.13900377  0.58368527  0.73563417     0.90770
C158        C  0.97548893  0.67805095  0.64126789     0.90940
O159        O  0.69394708  0.05797022  0.61672222    -0.71370
O160        O  0.61654640  0.94169102  0.69412576    -0.71400
O161        O  0.61654855  0.05796861  0.69413065    -0.71450
O162        O  0.69394530  0.94169173  0.61671761    -0.71500
O163        O  0.76052801  0.94099888  0.68301426    -0.71440
O164        O  0.68285620  0.05864589  0.76070257    -0.71410
O165        O  0.68285339  0.94099842  0.76069817    -0.71390
O166        O  0.76053027  0.05864607  0.68301849    -0.71450
Ni167      Ni  0.65288596  0.99983072  0.65306332     1.25410
Ni168      Ni  0.72418444  0.99982197  0.72435033     1.25360
C169        C  0.73546909  0.08158344  0.64127659     0.90810
C170        C  0.64110456  0.91807027  0.73564335     0.90740
C171        C  0.64110920  0.08158234  0.73564820     0.90770
C172        C  0.73546518  0.91806958  0.64127141     0.90940
O173        O  0.61650601  0.63649916  0.11557270    -0.71370
O174        O  0.69390913  0.55908960  0.99929851    -0.71400
O175        O  0.69391438  0.55909531  0.11557385    -0.71450
O176        O  0.61650072  0.63649326  0.99929742    -0.71500
O177        O  0.68280058  0.70307274  0.99860785    -0.71440
O178        O  0.76048874  0.62540045  0.11624786    -0.71410
O179        O  0.76048385  0.62539423  0.99860944    -0.71390
O180        O  0.68280564  0.70307903  0.11624597    -0.71450
Ni181      Ni  0.65284610  0.59543277  0.05743598     1.25410
Ni182      Ni  0.72413626  0.66672844  0.05742741     1.25360
C183        C  0.64106391  0.67802082  0.13918340     0.90810
C184        C  0.73542746  0.58364774  0.97568035     0.90740
C185        C  0.73543418  0.58365586  0.13918484     0.90770
C186        C  0.64105692  0.67801243  0.97567824     0.90940
O187        O  0.42057371  0.94169328  0.61667809    -0.71370
O188        O  0.49798851  0.05796618  0.69406776    -0.71400
O189        O  0.49798285  0.94168748  0.69407284    -0.71450
O190        O  0.42057782  0.05797261  0.61667522    -0.71500
O191        O  0.35400254  0.05865799  0.68298098    -0.71440
O192        O  0.43168708  0.94101607  0.76065862    -0.71410
O193        O  0.43168890  0.05865774  0.76064943    -0.71390
O194        O  0.35400248  0.94101408  0.68298792    -0.71450
Ni195      Ni  0.46164184  0.99982960  0.65301172     1.25410
Ni196      Ni  0.39035350  0.99983670  0.72431116     1.25360
C197        C  0.37905699  0.91807861  0.64124190     0.90810
C198        C  0.47343341  0.08158626  0.73558707     0.90740
C199        C  0.47342738  0.91807678  0.73559723     0.90770
C200        C  0.37906037  0.08159150  0.64123658     0.90940
O201        O  0.11539512  0.36315397  0.61668182    -0.71370
O202        O  0.99911302  0.44055872  0.69408175    -0.71400
O203        O  0.11539058  0.44056142  0.69407780    -0.71450
O204        O  0.99911649  0.36315212  0.61668436    -0.71500
O205        O  0.99843741  0.29657630  0.68299086    -0.71440
O206        O  0.11608013  0.37425846  0.76065753    -0.71410
O207        O  0.99843912  0.37425827  0.76066415    -0.71390
O208        O  0.11608093  0.29657553  0.68298569    -0.71450
Ni209      Ni  0.05725357  0.40421770  0.65301975     1.25410
Ni210      Ni  0.05725957  0.33292519  0.72431637     1.25360
C211        C  0.13901406  0.32163511  0.64124191     0.90810
C212        C  0.97550157  0.41600158  0.73560474     0.90740
C213        C  0.13900951  0.41600393  0.73559695     0.90770
C214        C  0.97550165  0.32163403  0.64124638     0.90940
O215        O  0.49792604  0.63645908  0.99928181    -0.71370
O216        O  0.42049427  0.55908712  0.11556013    -0.71400
O217        O  0.42049482  0.55908462  0.99928866    -0.71450
O218        O  0.49792754  0.63645958  0.11556014    -0.71500
O219        O  0.43164655  0.70306345  0.11624507    -0.71440
O220        O  0.35394244  0.62541753  0.99859889    -0.71410
O221        O  0.35393789  0.62541624  0.11624034    -0.71390
O222        O  0.43164886  0.70306694  0.99860087    -0.71450
Ni223      Ni  0.46157097  0.59541084  0.05742273     1.25410
Ni224      Ni  0.39030266  0.66673424  0.05742125     1.25360
C225        C  0.47338461  0.67799164  0.97566699     0.90810
C226        C  0.37898258  0.58366200  0.13917446     0.90740
C227        C  0.37898598  0.58366003  0.97566974     0.90770
C228        C  0.47338524  0.67798984  0.13917671     0.90940
O229        O  0.76049268  0.37422961  0.99860841    -0.71370
O230        O  0.68283327  0.29652733  0.11624786    -0.71400
O231        O  0.68283560  0.29653079  0.99860573    -0.71450
O232        O  0.76048812  0.37422834  0.11625190    -0.71500
O233        O  0.69389213  0.44051729  0.11556398    -0.71440
O234        O  0.61651112  0.36309141  0.99929241    -0.71410
O235        O  0.61651253  0.36309187  0.11556501    -0.71390
O236        O  0.69389276  0.44051484  0.99928685    -0.71450
Ni237      Ni  0.72415529  0.33288737  0.05742852     1.25410
Ni238      Ni  0.65284050  0.40416427  0.05742701     1.25360
C239        C  0.73542263  0.41596864  0.97567368     0.90810
C240        C  0.64108228  0.32157738  0.13918094     0.90740
C241        C  0.64108173  0.32157915  0.97567481     0.90770
C242        C  0.73541920  0.41597059  0.13918171     0.90940
O243        O  0.76050752  0.05864598  0.43186128    -0.71370
O244        O  0.68282960  0.94100076  0.35418888    -0.71400
O245        O  0.68283069  0.05864648  0.35418259    -0.71450
O246        O  0.76050767  0.94100088  0.43186653    -0.71500
O247        O  0.69392727  0.94168795  0.49816714    -0.71440
O248        O  0.61652669  0.05796889  0.42075978    -0.71410
O249        O  0.61652488  0.94168974  0.42076512    -0.71390
O250        O  0.69392804  0.05796709  0.49816285    -0.71450
Ni251      Ni  0.72416101  0.99982334  0.39053290     1.25410
Ni252      Ni  0.65286562  0.99982864  0.46182490     1.25360
C253        C  0.73544796  0.08158179  0.47360427     0.90810
C254        C  0.64108264  0.91807067  0.37924665     0.90740
C255        C  0.64108606  0.08158315  0.37923996     0.90770
C256        C  0.73544620  0.91806811  0.47360943     0.90940
O257        O  0.11538140  0.63652337  0.49816274    -0.71370
O258        O  0.99910527  0.55911512  0.42076953    -0.71400
O259        O  0.11538325  0.55911553  0.42076633    -0.71450
O260        O  0.99910325  0.63652335  0.49816558    -0.71500
O261        O  0.99841594  0.70309979  0.43185978    -0.71440
O262        O  0.11606223  0.62541632  0.35418458    -0.71410
O263        O  0.99841770  0.62541597  0.35418796    -0.71390
O264        O  0.11606057  0.70309967  0.43185674    -0.71450
Ni265      Ni  0.05724347  0.59545848  0.46182745     1.25410
Ni266      Ni  0.05723897  0.66675001  0.39053018     1.25360
C267        C  0.13899632  0.67804171  0.47360122     0.90810
C268        C  0.97548727  0.58367060  0.37924857     0.90740
C269        C  0.13899760  0.58367171  0.37924460     0.90770
C270        C  0.97548341  0.67804105  0.47360464     0.90940
O271        O  0.11607686  0.29656421  0.43184385    -0.71370
O272        O  0.99843130  0.37424284  0.35416234    -0.71400
O273        O  0.11607362  0.37424415  0.35416457    -0.71450
O274        O  0.99843182  0.29656312  0.43184204    -0.71500
O275        O  0.99911029  0.36314245  0.49814193    -0.71440
O276        O  0.11538453  0.44054862  0.42073977    -0.71410
O277        O  0.99910832  0.44054672  0.42073817    -0.71390
O278        O  0.11538845  0.36314420  0.49814307    -0.71450
Ni279      Ni  0.05725363  0.33291137  0.39051143     1.25410
Ni280      Ni  0.05724769  0.40420647  0.46180201     1.25360
C281        C  0.13900843  0.32162470  0.47358665     0.90810
C282        C  0.97549532  0.41598835  0.37921863     0.90740
C283        C  0.13900273  0.41599097  0.37922100     0.90770
C284        C  0.97549600  0.32162239  0.47358512     0.90940
O285        O  0.35398055  0.94101386  0.43183172    -0.71370
O286        O  0.43166443  0.05866005  0.35416140    -0.71400
O287        O  0.43166092  0.94101654  0.35415414    -0.71450
O288        O  0.35398299  0.05865999  0.43183761    -0.71500
O289        O  0.42056180  0.05796885  0.49813817    -0.71440
O290        O  0.49796154  0.94168776  0.42073343    -0.71410
O291        O  0.49796752  0.05796480  0.42073803    -0.71390
O292        O  0.42055670  0.94169005  0.49813500    -0.71450
Ni293      Ni  0.39033009  0.99983800  0.39050429     1.25410
Ni294      Ni  0.46162281  0.99982748  0.46179743     1.25360
C295        C  0.37903744  0.91807683  0.47357621     0.90810
C296        C  0.47341129  0.08158659  0.37922005     0.90740
C297        C  0.47340406  0.91807753  0.37921179     0.90770
C298        C  0.37904292  0.08159005  0.47358153     0.90940
O299        O  0.43163671  0.29651843  0.99859897    -0.71370
O300        O  0.35397326  0.37422098  0.11624463    -0.71400
O301        O  0.35396842  0.37421480  0.99859746    -0.71450
O302        O  0.43164175  0.29652469  0.11624657    -0.71500
O303        O  0.49795406  0.36309088  0.11555126    -0.71440
O304        O  0.42055620  0.44050582  0.99927631    -0.71410
O305        O  0.42056148  0.44051141  0.11555093    -0.71390
O306        O  0.49794872  0.36308508  0.99927793    -0.71450
Ni307      Ni  0.39031208  0.33287748  0.05742227     1.25410
Ni308      Ni  0.46161581  0.40415812  0.05741375     1.25360
C309        C  0.47338639  0.32156825  0.97566434     0.90810
C310        C  0.37903763  0.41596538  0.13917132     0.90740
C311        C  0.37903096  0.41595735  0.97566298     0.90770
C312        C  0.47339340  0.32157658  0.13917336     0.90940
C313        C  0.74658008  0.86054490  0.48702382    -0.10220
C314        C  0.74505532  0.81142241  0.49944307    -0.11770
C315        C  0.86883900  0.68764949  0.49944013    -0.10220
C316        C  0.91796063  0.68917610  0.48701896    -0.11770
C317        C  0.86884611  0.68765703  0.61542463    -0.10220
C318        C  0.91796699  0.68918620  0.62784861    -0.11770
C319        C  0.74507024  0.81142672  0.61542645    -0.10220
C320        C  0.74659919  0.86054773  0.62785056    -0.11770
C321        C  0.74507149  0.18822466  0.49944213    -0.10220
C322        C  0.74658831  0.13910242  0.48702102    -0.11770
C323        C  0.86885459  0.31200384  0.49942950    -0.10220
C324        C  0.91797575  0.31048235  0.48700435    -0.11770
C325        C  0.74661043  0.13910388  0.62785492    -0.10220
C326        C  0.74508893  0.18822525  0.61542759    -0.11770
C327        C  0.86885843  0.31201466  0.61541356    -0.10220
C328        C  0.91798070  0.31049534  0.62783260    -0.11770
C329        C  0.74505587  0.44183440  0.24581740    -0.10220
C330        C  0.74656352  0.42940362  0.19669786    -0.11770
C331        C  0.86885399  0.44182950  0.36959444    -0.10220
C332        C  0.91797582  0.42940734  0.36807566    -0.11770
C333        C  0.74506479  0.55782200  0.24582453    -0.10220
C334        C  0.74657958  0.57024133  0.19670326    -0.11770
C335        C  0.91796940  0.57024521  0.36810498    -0.10220
C336        C  0.86884915  0.55781744  0.36961514    -0.11770
C337        C  0.19653636  0.31049830  0.62782842    -0.10220
C338        C  0.24565840  0.31201969  0.61540913    -0.11770
C339        C  0.36792343  0.13911432  0.62782426    -0.10220
C340        C  0.36944359  0.18823713  0.61540654    -0.11770
C341        C  0.36942962  0.18823277  0.49942364    -0.10220
C342        C  0.36790580  0.13911146  0.48700081    -0.11770
C343        C  0.19652999  0.31048783  0.48700445    -0.10220
C344        C  0.24565138  0.31201194  0.49942597    -0.11770
C345        C  0.48682245  0.31043770  0.19669200    -0.10220
C346        C  0.49925759  0.31197153  0.24580967    -0.11770
C347        C  0.48683501  0.13910539  0.36808179    -0.10220
C348        C  0.49925975  0.18822562  0.36960361    -0.11770
C349        C  0.62766871  0.13910421  0.36809789    -0.10220
C350        C  0.61524496  0.18822613  0.36961564    -0.11770
C351        C  0.62767019  0.31043945  0.19670119    -0.10220
C352        C  0.61524714  0.31197420  0.24582073    -0.11770
C353        C  0.24564067  0.44183697  0.36959640    -0.10220
C354        C  0.19652051  0.42941309  0.36807854    -0.11770
C355        C  0.36941290  0.44183960  0.24580508    -0.10220
C356        C  0.36789494  0.42940290  0.19668731    -0.11770
C357        C  0.36784322  0.57025209  0.19669463    -0.10220
C358        C  0.36938036  0.55782985  0.24581431    -0.11770
C359        C  0.19651693  0.57024961  0.36810110    -0.10220
C360        C  0.24563820  0.55782365  0.36961421    -0.11770
C361        C  0.19651737  0.68918006  0.48701573    -0.10220
C362        C  0.24563941  0.68765840  0.49943577    -0.11770
C363        C  0.36941748  0.81143511  0.49942267    -0.10220
C364        C  0.36789561  0.86055644  0.48699594    -0.11770
C365        C  0.19652219  0.68919269  0.62784769    -0.10220
C366        C  0.24564303  0.68766906  0.61542096    -0.11770
C367        C  0.36943384  0.81143576  0.61540732    -0.10220
C368        C  0.36791613  0.86055798  0.62782757    -0.11770
C369        C  0.49924901  0.68762923  0.24581339    -0.10220
C370        C  0.48681891  0.68913398  0.19669321    -0.11770
C371        C  0.48682070  0.86055744  0.36806793    -0.10220
C372        C  0.49924142  0.81143489  0.36958709    -0.11770
C373        C  0.61523479  0.68764641  0.24582402    -0.10220
C374        C  0.62765150  0.68916355  0.19670239    -0.11770
C375        C  0.62765703  0.86055213  0.36810304    -0.10220
C376        C  0.61522852  0.81143145  0.36961285    -0.11770
C377        C  0.49924221  0.68762989  0.86902979    -0.10220
C378        C  0.48681356  0.68913600  0.91814982    -0.11770
C379        C  0.48684121  0.86055635  0.74674240    -0.10220
C380        C  0.49925666  0.81143252  0.74523508    -0.11770
C381        C  0.62767621  0.86055184  0.74678757    -0.10220
C382        C  0.61524345  0.81143250  0.74526844    -0.11770
C383        C  0.61522637  0.68763380  0.86903696    -0.10220
C384        C  0.62764079  0.68914995  0.91815887    -0.11770
C385        C  0.24564922  0.44184392  0.74522264    -0.10220
C386        C  0.19652809  0.42942351  0.74673603    -0.11770
C387        C  0.36940703  0.44182822  0.86902842    -0.10220
C388        C  0.36788540  0.42939012  0.91814623    -0.11770
C389        C  0.24564343  0.55783071  0.74524945    -0.10220
C390        C  0.19652335  0.57026092  0.74677461    -0.11770
C391        C  0.36938607  0.55782000  0.86903097    -0.10220
C392        C  0.36784841  0.57024466  0.91815017    -0.11770
C393        C  0.48685451  0.13910513  0.74672469    -0.10220
C394        C  0.49927481  0.18822675  0.74521284    -0.11770
C395        C  0.48681176  0.31042406  0.91814609    -0.10220
C396        C  0.49924921  0.31195866  0.86902871    -0.11770
C397        C  0.62768893  0.13910301  0.74678897    -0.10220
C398        C  0.61526016  0.18822372  0.74526001    -0.11770
C399        C  0.62766490  0.31044128  0.91815525    -0.10220
C400        C  0.61524043  0.31197443  0.86903555    -0.11770
C401        C  0.91798228  0.42941834  0.74675068    -0.10220
C402        C  0.86885933  0.44183649  0.74524325    -0.11770
C403        C  0.74656860  0.42939618  0.91815692    -0.10220
C404        C  0.74506123  0.44182454  0.86903692    -0.11770
C405        C  0.74656978  0.57022847  0.91816266    -0.10220
C406        C  0.74505840  0.55781054  0.86904146    -0.11530
C407        C  0.86885768  0.55782448  0.74526714    -0.10220
C408        C  0.91797686  0.57025601  0.74678250    -0.11770
loop_ 
_geom_bond_atom_site_label_1 
_geom_bond_atom_site_label_2 
_geom_bond_distance 
_geom_bond_site_symmetry_2 
_ccdc_geom_bond_type 
C1            C2   1.413       .  A
C1            C6   1.429       .  A
C1          C407   1.447       .  S
C2            C3   1.413       .  A
C2          C140   1.536       .  S
C3            C4   1.429       .  A
C3          C406   1.447       .  S
C4            C5   1.413       .  A
C4          C404   1.447       .  S
C5            C6   1.413       .  A
C5            C7   1.536       .  S
C6          C402   1.447       .  S
C7            C8   1.421       .  A
C7           C12   1.421       .  A
C8            C9   1.421       .  A
C8           H13   1.078       .  S
C9           C10   1.421       .  A
C9           C17   1.536       .  S
C10          C11   1.421       .  A
C10          H14   1.078       .  S
C11          C12   1.421       .  A
C11         C107   1.536       .  S
C12          H15   1.078       .  S
C16          C17   1.413       .  A
C16          C21   1.429       .  A
C16         C400   1.447       .  S
C17          C18   1.413       .  A
C18          C19   1.429       .  A
C18         C398   1.447       .  S
C19          C20   1.413       .  A
C19         C394   1.447       .  S
C20          C21   1.413       .  A
C20          C32   1.536       .  S
C21         C396   1.447       .  S
C22          C23   1.429       .  A
C22          C27   1.413       .  A
C22         C387   1.447       .  S
C23          C24   1.413       .  A
C23         C391   1.447       .  S
C24          C25   1.413       .  A
C24          C47   1.536       .  S
C25          C26   1.429       .  A
C25         C389   1.447       .  S
C26          C27   1.413       .  A
C26         C385   1.447       .  S
C27          C30   1.536       .  S
C28          C29   1.421       .  A
C28          C33   1.421       .  A
C28          C95   1.536       .  S
C29          C30   1.421       .  A
C29          H34   1.078       .  S
C30          C31   1.421       .  A
C31          C32   1.421       .  A
C31          H35   1.078       .  S
C32          C33   1.421       .  A
C33          H36   1.078       .  S
C37          C38   1.429       .  A
C37          C42   1.413       .  A
C37         C377   1.447       .  S
C38          C39   1.413       .  A
C38         C383   1.447       .  S
C39          C40   1.413       .  A
C39         C136   1.536       .  S
C40          C41   1.429       .  A
C40         C382   1.447       .  S
C41          C42   1.413       .  A
C41         C380   1.447       .  S
C42          C43   1.536       .  S
C43          C44   1.421       .  A
C43          C48   1.421       .  A
C44          C45   1.421       .  A
C44          H49   1.078       .  S
C45          C46   1.421       .  A
C45          C60   1.536       .  S
C46          C47   1.421       .  A
C46          H50   1.078       .  S
C47          C48   1.421       .  A
C48          H51   1.078       .  S
C52          C53   1.413       .  A
C52          C57   1.429       .  A
C52         C376   1.447       .  S
C53          C54   1.413       .  A
C53         C127   1.536       .  S
C54          C55   1.429       .  A
C54         C373   1.447       .  S
C55          C56   1.413       .  A
C55         C369   1.447       .  S
C56          C57   1.413       .  A
C56          C64   1.536       .  S
C57         C372   1.447       .  S
C58          C59   1.429       .  A
C58          C63   1.413       .  A
C58         C363   1.447       .  S
C59          C60   1.413       .  A
C59         C367   1.447       .  S
C60          C61   1.413       .  A
C61          C62   1.429       .  A
C61         C366   1.447       .  S
C62          C63   1.413       .  A
C62         C362   1.447       .  S
C63          C66   1.536       .  S
C64          C65   1.421       .  A
C64          C69   1.421       .  A
C65          C66   1.421       .  A
C65          H70   1.078       .  S
C66          C67   1.421       .  A
C67          C68   1.421       .  A
C67          H71   1.078       .  S
C68          C69   1.421       .  A
C68          C74   1.536       .  S
C69          H72   1.078       .  S
C73          C74   1.413       .  A
C73          C78   1.429       .  A
C73         C360   1.447       .  S
C74          C75   1.413       .  A
C75          C76   1.429       .  A
C75         C358   1.447       .  S
C76          C77   1.413       .  A
C76         C355   1.447       .  S
C77          C78   1.413       .  A
C77          C89   1.536       .  S
C78         C353   1.447       .  S
C79          C80   1.413       .  A
C79          C84   1.429       .  A
C79         C352   1.447       .  S
C80          C81   1.413       .  A
C80         C114   1.536       .  S
C81          C82   1.429       .  A
C81         C350   1.447       .  S
C82          C83   1.413       .  A
C82         C348   1.447       .  S
C83          C84   1.413       .  A
C83          C87   1.536       .  S
C84         C346   1.447       .  S
C85          C86   1.421       .  A
C85          C90   1.421       .  A
C85          C98   1.536       .  S
C86          C87   1.421       .  A
C86          H91   1.078       .  S
C87          C88   1.421       .  A
C88          C89   1.421       .  A
C88          H92   1.078       .  S
C89          C90   1.421       .  A
C90          H93   1.078       .  S
C94          C95   1.413       .  A
C94          C99   1.429       .  A
C94         C338   1.447       .  S
C95          C96   1.413       .  A
C96          C97   1.429       .  A
C96         C340   1.447       .  S
C97          C98   1.413       .  A
C97         C341   1.447       .  S
C98          C99   1.413       .  A
C99         C344   1.447       .  S
C100        C101   1.413       .  A
C100        C105   1.429       .  A
C100        C336   1.447       .  S
C101        C102   1.413       .  A
C101        C129   1.536       .  S
C102        C103   1.429       .  A
C102        C333   1.447       .  S
C103        C104   1.413       .  A
C103        C329   1.447       .  S
C104        C105   1.413       .  A
C104        C112   1.536       .  S
C105        C331   1.447       .  S
C106        C107   1.413       .  A
C106        C111   1.429       .  A
C106        C326   1.447       .  S
C107        C108   1.413       .  A
C108        C109   1.429       .  A
C108        C327   1.447       .  S
C109        C110   1.413       .  A
C109        C323   1.447       .  S
C110        C111   1.413       .  A
C110        C116   1.536       .  S
C111        C321   1.447       .  S
C112        C113   1.421       .  A
C112        C117   1.421       .  A
C113        C114   1.421       .  A
C113        H118   1.078       .  S
C114        C115   1.421       .  A
C115        C116   1.421       .  A
C115        H119   1.078       .  S
C116        C117   1.421       .  A
C117        H120   1.078       .  S
C121        C122   1.413       .  A
C121        C126   1.429       .  A
C121        C319   1.447       .  S
C122        C123   1.413       .  A
C122        C138   1.536       .  S
C123        C124   1.429       .  A
C123        C317   1.447       .  S
C124        C125   1.413       .  A
C124        C315   1.447       .  S
C125        C126   1.413       .  A
C125        C131   1.536       .  S
C126        C314   1.447       .  S
C127        C128   1.421       .  A
C127        C132   1.421       .  A
C128        C129   1.421       .  A
C128        H133   1.078       .  S
C129        C130   1.421       .  A
C130        C131   1.421       .  A
C130        H134   1.078       .  S
C131        C132   1.421       .  A
C132        H135   1.078       .  S
C136        C137   1.421       .  A
C136        C141   1.421       .  A
C137        C138   1.421       .  A
C137        H142   1.078       .  S
C138        C139   1.421       .  A
C139        C140   1.421       .  A
C139        H143   1.078       .  S
C140        C141   1.421       .  A
C141        H144   1.078       .  S
O145       Ni153   1.915       .  S
O145        C155   1.279       .  A
O146       Ni153   1.915   1_655  S
O146        C156   1.279       .  A
O147       Ni153   1.915       .  S
O147        C157   1.279       .  A
O148       Ni153   1.915   1_655  S
O148        C158   1.279       .  A
O149       Ni154   1.900   1_655  S
O149        C158   1.277       .  A
O150       Ni154   1.900       .  S
O150        C157   1.277       .  A
O151       Ni154   1.900   1_655  S
O151        C156   1.277       .  A
O152       Ni154   1.900       .  S
O152        C155   1.277       .  A
Ni153      Ni154   2.397       .  S
C155        C365   1.429       .  S
C156        C408   1.429       .  S
C157        C390   1.429       .  S
C158        C318   1.429       .  S
O159       Ni167   1.900   1_545  S
O159        C169   1.277       .  A
O160       Ni167   1.900       .  S
O160        C170   1.277       .  A
O161       Ni167   1.900   1_545  S
O161        C171   1.277       .  A
O162       Ni167   1.900       .  S
O162        C172   1.277       .  A
O163       Ni168   1.915       .  S
O163        C172   1.279       .  A
O164       Ni168   1.915   1_545  S
O164        C171   1.279       .  A
O165       Ni168   1.915       .  S
O165        C170   1.279       .  A
O166       Ni168   1.915   1_545  S
O166        C169   1.279       .  A
Ni167      Ni168   2.397       .  S
C169        C325   1.429       .  S
C170        C381   1.429       .  S
C171        C397   1.429       .  S
C172        C320   1.429       .  S
O173       Ni181   1.900       .  S
O173        C183   1.277       .  A
O174       Ni181   1.900   1_556  S
O174        C184   1.277       .  A
O175       Ni181   1.900       .  S
O175        C185   1.277       .  A
O176       Ni181   1.900   1_556  S
O176        C186   1.277       .  A
O177       Ni182   1.915   1_556  S
O177        C186   1.279       .  A
O178       Ni182   1.915       .  S
O178        C185   1.279       .  A
O179       Ni182   1.915   1_556  S
O179        C184   1.279       .  A
O180       Ni182   1.915       .  S
O180        C183   1.279       .  A
Ni181      Ni182   2.397       .  S
C183        C374   1.429       .  S
C184        C405   1.429       .  S
C185        C334   1.429       .  S
C186        C384   1.429       .  S
O187       Ni195   1.900       .  S
O187        C197   1.277       .  A
O188       Ni195   1.900   1_545  S
O188        C198   1.277       .  A
O189       Ni195   1.900       .  S
O189        C199   1.277       .  A
O190       Ni195   1.900   1_545  S
O190        C200   1.277       .  A
O191       Ni196   1.915   1_545  S
O191        C200   1.279       .  A
O192       Ni196   1.915       .  S
O192        C199   1.279       .  A
O193       Ni196   1.915   1_545  S
O193        C198   1.279       .  A
O194       Ni196   1.915       .  S
O194        C197   1.279       .  A
Ni195      Ni196   2.397       .  S
C197        C368   1.429       .  S
C198        C393   1.429       .  S
C199        C379   1.429       .  S
C200        C339   1.429       .  S
O201       Ni209   1.900       .  S
O201        C211   1.277       .  A
O202       Ni209   1.900   1_655  S
O202        C212   1.277       .  A
O203       Ni209   1.900       .  S
O203        C213   1.277       .  A
O204       Ni209   1.900   1_655  S
O204        C214   1.277       .  A
O205       Ni210   1.915   1_655  S
O205        C214   1.279       .  A
O206       Ni210   1.915       .  S
O206        C213   1.279       .  A
O207       Ni210   1.915   1_655  S
O207        C212   1.279       .  A
O208       Ni210   1.915       .  S
O208        C211   1.279       .  A
Ni209      Ni210   2.397       .  S
C211        C337   1.429       .  S
C212        C401   1.429       .  S
C213        C386   1.429       .  S
C214        C328   1.429       .  S
O215       Ni223   1.900   1_556  S
O215        C225   1.277       .  A
O216       Ni223   1.900       .  S
O216        C226   1.277       .  A
O217       Ni223   1.900   1_556  S
O217        C227   1.277       .  A
O218       Ni223   1.900       .  S
O218        C228   1.277       .  A
O219       Ni224   1.915       .  S
O219        C228   1.279       .  A
O220       Ni224   1.915   1_556  S
O220        C227   1.279       .  A
O221       Ni224   1.915       .  S
O221        C226   1.279       .  A
O222       Ni224   1.915   1_556  S
O222        C225   1.279       .  A
Ni223      Ni224   2.397       .  S
C225        C378   1.429       .  S
C226        C357   1.429       .  S
C227        C392   1.429       .  S
C228        C370   1.429       .  S
O229       Ni237   1.915   1_556  S
O229        C239   1.279       .  A
O230       Ni237   1.915       .  S
O230        C240   1.279       .  A
O231       Ni237   1.915   1_556  S
O231        C241   1.279       .  A
O232       Ni237   1.915       .  S
O232        C242   1.279       .  A
O233       Ni238   1.900       .  S
O233        C242   1.277       .  A
O234       Ni238   1.900   1_556  S
O234        C241   1.277       .  A
O235       Ni238   1.900       .  S
O235        C240   1.277       .  A
O236       Ni238   1.900   1_556  S
O236        C239   1.277       .  A
Ni237      Ni238   2.397       .  S
C239        C403   1.429       .  S
C240        C351   1.429       .  S
C241        C399   1.429       .  S
C242        C330   1.429       .  S
O243       Ni251   1.915   1_545  S
O243        C253   1.279       .  A
O244       Ni251   1.915       .  S
O244        C254   1.279       .  A
O245       Ni251   1.915   1_545  S
O245        C255   1.279       .  A
O246       Ni251   1.915       .  S
O246        C256   1.279       .  A
O247       Ni252   1.900       .  S
O247        C256   1.277       .  A
O248       Ni252   1.900   1_545  S
O248        C255   1.277       .  A
O249       Ni252   1.900       .  S
O249        C254   1.277       .  A
O250       Ni252   1.900   1_545  S
O250        C253   1.277       .  A
Ni251      Ni252   2.397       .  S
C253        C322   1.429       .  S
C254        C375   1.429       .  S
C255        C349   1.429       .  S
C256        C313   1.429       .  S
O257       Ni265   1.900       .  S
O257        C267   1.277       .  A
O258       Ni265   1.900   1_655  S
O258        C268   1.277       .  A
O259       Ni265   1.900       .  S
O259        C269   1.277       .  A
O260       Ni265   1.900   1_655  S
O260        C270   1.277       .  A
O261       Ni266   1.915   1_655  S
O261        C270   1.279       .  A
O262       Ni266   1.915       .  S
O262        C269   1.279       .  A
O263       Ni266   1.915   1_655  S
O263        C268   1.279       .  A
O264       Ni266   1.915       .  S
O264        C267   1.279       .  A
Ni265      Ni266   2.397       .  S
C267        C361   1.429       .  S
C268        C335   1.429       .  S
C269        C359   1.429       .  S
C270        C316   1.429       .  S
O271       Ni279   1.915       .  S
O271        C281   1.279       .  A
O272       Ni279   1.915   1_655  S
O272        C282   1.279       .  A
O273       Ni279   1.915       .  S
O273        C283   1.279       .  A
O274       Ni279   1.915   1_655  S
O274        C284   1.279       .  A
O275       Ni280   1.900   1_655  S
O275        C284   1.277       .  A
O276       Ni280   1.900       .  S
O276        C283   1.277       .  A
O277       Ni280   1.900   1_655  S
O277        C282   1.277       .  A
O278       Ni280   1.900       .  S
O278        C281   1.277       .  A
Ni279      Ni280   2.397       .  S
C281        C343   1.429       .  S
C282        C332   1.429       .  S
C283        C354   1.429       .  S
C284        C324   1.429       .  S
O285       Ni293   1.915       .  S
O285        C295   1.279       .  A
O286       Ni293   1.915   1_545  S
O286        C296   1.279       .  A
O287       Ni293   1.915       .  S
O287        C297   1.279       .  A
O288       Ni293   1.915   1_545  S
O288        C298   1.279       .  A
O289       Ni294   1.900   1_545  S
O289        C298   1.277       .  A
O290       Ni294   1.900       .  S
O290        C297   1.277       .  A
O291       Ni294   1.900   1_545  S
O291        C296   1.277       .  A
O292       Ni294   1.900       .  S
O292        C295   1.277       .  A
Ni293      Ni294   2.397       .  S
C295        C364   1.429       .  S
C296        C347   1.429       .  S
C297        C371   1.429       .  S
C298        C342   1.429       .  S
O299       Ni307   1.915   1_556  S
O299        C309   1.279       .  A
O300       Ni307   1.915       .  S
O300        C310   1.279       .  A
O301       Ni307   1.915   1_556  S
O301        C311   1.279       .  A
O302       Ni307   1.915       .  S
O302        C312   1.279       .  A
O303       Ni308   1.900       .  S
O303        C312   1.277       .  A
O304       Ni308   1.900   1_556  S
O304        C311   1.277       .  A
O305       Ni308   1.900       .  S
O305        C310   1.277       .  A
O306       Ni308   1.900   1_556  S
O306        C309   1.277       .  A
Ni307      Ni308   2.397       .  S
C309        C395   1.429       .  S
C310        C356   1.429       .  S
C311        C388   1.429       .  S
C312        C345   1.429       .  S
C313        C314   1.205       .  T
C315        C316   1.205       .  T
C317        C318   1.205       .  T
C319        C320   1.205       .  T
C321        C322   1.205       .  T
C323        C324   1.205       .  T
C325        C326   1.205       .  T
C327        C328   1.205       .  T
C329        C330   1.205       .  T
C331        C332   1.205       .  T
C333        C334   1.205       .  T
C335        C336   1.205       .  T
C337        C338   1.205       .  T
C339        C340   1.205       .  T
C341        C342   1.205       .  T
C343        C344   1.205       .  T
C345        C346   1.205       .  T
C347        C348   1.205       .  T
C349        C350   1.205       .  T
C351        C352   1.205       .  T
C353        C354   1.205       .  T
C355        C356   1.205       .  T
C357        C358   1.205       .  T
C359        C360   1.205       .  T
C361        C362   1.205       .  T
C363        C364   1.205       .  T
C365        C366   1.205       .  T
C367        C368   1.205       .  T
C369        C370   1.205       .  T
C371        C372   1.205       .  T
C373        C374   1.205       .  T
C375        C376   1.205       .  T
C377        C378   1.205       .  T
C379        C380   1.205       .  T
C381        C382   1.205       .  T
C383        C384   1.205       .  T
C385        C386   1.205       .  T
C387        C388   1.205       .  T
C389        C390   1.205       .  T
C391        C392   1.205       .  T
C393        C394   1.205       .  T
C395        C396   1.205       .  T
C397        C398   1.205       .  T
C399        C400   1.205       .  T
C401        C402   1.205       .  T
C403        C404   1.205       .  T
C405        C406   1.205       .  T
C407        C408   1.205       .  T
