geometry optimzed in LAMMPS
_audit_creation_date              2020-11-30 
_audit_creation_method            'lammps2cif' 
_symmetry_space_group_name_H-M    'P1' 
_symmetry_Int_Tables_number       1 
_symmetry_cell_setting            triclinic 
loop_ 
_symmetry_equiv_pos_as_xyz 
  x,y,z 
_cell_length_a                    27.14500241 
_cell_length_b                    27.155090282491678 
_cell_length_c                    66.2214254149802 
_cell_angle_alpha                 89.99544731398832 
_cell_angle_beta                  90.0141496332837 
_cell_angle_gamma                 120.00463420048712 
loop_ 
_atom_site_label 
_atom_site_type_symbol 
_atom_site_fract_x 
_atom_site_fract_y 
_atom_site_fract_z 
_atom_site_charge 
O1          O  0.06904330  0.29547444  0.32618626    -0.86500
C2          C  0.20242853  0.39572667  0.28865759     0.89500
Mg3        Mg  0.05646357  0.32513921  0.35481868     1.58100
O4          O  0.21687536  0.29058950  0.31486910    -0.86300
O5          O  0.08109571  0.22728153  0.31411828    -0.73600
C6          C  0.30689388  0.44228721  0.40048622     0.94500
O7          O  0.12915817  0.43093634  0.31998106    -0.73400
O8          O  0.26327750  0.44788576  0.39902396    -0.80900
Mg9        Mg  0.08288231  0.35015970  0.30053889     1.58000
C10         C  0.37417908  0.33736576  0.34236022     0.94500
O11         O  0.03409238  0.27780974  0.27770790    -0.79200
H12         H  0.18943104  0.20903707  0.32136362    -0.04500
C13         C  0.29911419  0.44937764  0.34005031     0.89400
O14         O  0.10033106  0.28353136  0.37169031    -0.73700
O15         O  0.16149898  0.35066785  0.29459304    -0.86400
O16         O  0.35326653  0.33639355  0.32503643    -0.79300
C17         C  0.27572688  0.31057254  0.26566439     0.94600
C18         C  0.04518609  0.24963894  0.26494724     0.94400
Mg19       Mg  0.27018491  0.34343345  0.36457222     1.58000
O20         O  0.31900831  0.41548131  0.38747357    -0.79200
O21         O  0.22385323  0.26273509  0.34515264    -0.73400
O22         O  0.22295204  0.29464413  0.26648597    -0.79300
O23         O  0.99931326  0.34838551  0.30681539    -0.81000
O24         O  0.13007892  0.39807766  0.39860554    -0.79300
C25         C  0.20967699  0.25242628  0.32670768     0.88900
O26         O  0.19182890  0.34317780  0.37031547    -0.86400
O27         O  0.28478918  0.39852040  0.33893128    -0.86500
O28         O  0.27225484  0.46646164  0.35102761    -0.73600
Mg29       Mg  0.15453730  0.26807245  0.29126442     1.58000
O30         O  0.30940938  0.33485244  0.28037592    -0.81000
H31         H  0.01897954  0.21417090  0.33407853    -0.04700
O32         O  0.13624561  0.40329463  0.35031274    -0.86200
H33         H  0.16360935  0.48479344  0.34373275    -0.04500
H34         H  0.15924559  0.26951349  0.38526025    -0.04700
C35         C  0.14338265  0.44136581  0.33842734     0.88900
C36         C  0.05440645  0.24456492  0.32507104     0.89400
C37         C  0.15120132  0.29802827  0.37630685     0.89500
H38         H  0.33446254  0.47991509  0.33104682    -0.04700
O39         O  0.25321987  0.40983731  0.29331092    -0.73700
Mg40       Mg  0.19861262  0.42546251  0.37387914     1.58000
H41         H  0.19474726  0.42445199  0.27968232    -0.04700
C42         C  0.97776386  0.35398730  0.32310680     0.94500
O43         O  0.04322354  0.35678992  0.38503402    -0.80900
C44         C  0.07704206  0.38068873  0.39974337     0.94500
O45         O  0.08904373  0.24436210  0.26625835    -0.80900
Mg46       Mg  0.29693562  0.36811806  0.31034464     1.58200
O47         O  0.99949830  0.35619393  0.34036774    -0.79300
O48         O  0.35300965  0.34381657  0.35858901    -0.80900
C49         C  0.34329580  0.14962072  0.18709693     0.04100
C50         C  0.34835340  0.20404551  0.18728673     0.04100
C51         C  0.36696846  0.23777079  0.16984334    -0.16500
C52         C  0.38059289  0.21806431  0.15237966     0.04100
C53         C  0.37589309  0.16413657  0.15220949     0.04100
C54         C  0.35724368  0.13020900  0.16954698    -0.16500
H55         H  0.35355193  0.08854072  0.16938074     0.06100
H56         H  0.37071459  0.27946567  0.16982953     0.06100
C57         C  0.82798845  0.12206317  0.18330952     0.04100
C58         C  0.88039704  0.17314764  0.18239852     0.04100
C59         C  0.89527542  0.20651380  0.16487156    -0.16500
C60         C  0.85885354  0.18924433  0.14802709     0.04100
C61         C  0.80663123  0.13711137  0.14874010     0.04100
C62         C  0.79158486  0.10425778  0.16649829    -0.16500
H63         H  0.75150749  0.06450516  0.16720476     0.06100
H64         H  0.93552521  0.24612818  0.16432405     0.06100
O65         O  0.28401052  0.89410065  0.33668549    -0.86500
C66         C  0.15633440  0.85511621  0.37684144     0.89500
Mg67       Mg  0.28832085  0.93516004  0.30842931     1.58100
O68         O  0.14448706  0.73794429  0.34979496    -0.86300
O69         O  0.27978692  0.81631860  0.34787252    -0.73600
C70         C  0.03106985  0.78715142  0.26636443     0.94500
O71         O  0.21711875  0.96135564  0.34530832    -0.73400
O72         O  0.07268191  0.83795244  0.26733761    -0.80900
Mg73       Mg  0.27168480  0.93300098  0.36316539     1.58000
C74         C  0.98445760  0.62080719  0.32557534     0.94500
O75         O  0.32820706  0.91433753  0.38434569    -0.79200
H76         H  0.17550703  0.68783829  0.34169857    -0.04500
C77         C  0.04854044  0.80396539  0.32689887     0.89400
O78         O  0.24684020  0.84956098  0.29156247    -0.73700
O79         O  0.19777618  0.85291877  0.37026060    -0.86400
O80         O  0.00837758  0.64205483  0.34240980    -0.79300
C81         C  0.09363715  0.70040642  0.40027682     0.94600
C82         C  0.32196509  0.87574017  0.39675481     0.94400
Mg83       Mg  0.08037981  0.73181322  0.30114844     1.58000
O84         O  0.02422730  0.74925524  0.27921320    -0.79200
O85         O  0.13411207  0.70329519  0.31926003    -0.73400
O86         O  0.14622859  0.73678501  0.39820904    -0.79300
O87         O  0.35007791  0.01790207  0.35576585    -0.81000
O88         O  0.20589023  0.92917856  0.26608640    -0.79300
C89         C  0.15192729  0.70849560  0.33730360     0.88900
O90         O  0.15452971  0.81217231  0.29395798    -0.86400
O91         O  0.06784350  0.77136563  0.32746550    -0.86500
O92         O  0.07033773  0.84764890  0.31565329    -0.73600
Mg93       Mg  0.21020210  0.78040117  0.37226449     1.58000
O94         O  0.05746914  0.68912668  0.38627864    -0.81000
H95         H  0.33678934  0.86793714  0.32690315    -0.04700
O96         O  0.20615130  0.92696620  0.31468253    -0.86200
H97         H  0.17432078  0.97609711  0.32317629    -0.04500
H98         H  0.19007910  0.77527658  0.27818288    -0.04700
C99         C  0.19847714  0.95588529  0.32735295     0.88900
C100        C  0.30212703  0.86045824  0.33683380     0.89400
C101        C  0.19645357  0.81093872  0.28734222     0.89500
H102        H  0.01323779  0.79591901  0.33657953    -0.04700
O103        O  0.10568942  0.81734676  0.37256369    -0.73700
Mg104      Mg  0.14108180  0.88408759  0.29169602     1.58000
H105        H  0.16343216  0.89115564  0.38592643    -0.04700
C106        C  0.36642689  0.04575548  0.33934721     0.94500
O107        O  0.29356147  0.97881654  0.27883883    -0.80900
C108        C  0.25800578  0.96758154  0.26465924     0.94500
O109        O  0.27981129  0.82532089  0.39595903    -0.80900
Mg110      Mg  0.06319532  0.73142203  0.35609465     1.58200
O111        O  0.34248044  0.02473740  0.32248222    -0.79300
O112        O  0.00162184  0.64764717  0.30897389    -0.80900
O113        O  0.63011076  0.73214694  0.34224075    -0.86500
C114        C  0.72742256  0.86475812  0.38010512     0.89500
Mg115      Mg  0.66103303  0.72356612  0.31346109     1.58100
O116        O  0.61816745  0.87590322  0.35567084    -0.86300
O117        O  0.56017094  0.74101724  0.35464394    -0.73600
C118        C  0.76574791  0.97571615  0.26995375     0.94500
O119        O  0.76650591  0.79760471  0.34827911    -0.73400
O120        O  0.77441876  0.93397533  0.27113553    -0.80900
Mg121      Mg  0.68606242  0.74714955  0.36750746     1.58000
C122        C  0.65501453  0.03089065  0.32987282     0.94500
O123        O  0.61382970  0.69437911  0.38952675    -0.79200
H124        H  0.53556638  0.84508521  0.34996586    -0.04500
C125        C  0.77500913  0.96554938  0.32997271     0.89400
O126        O  0.61524463  0.76453026  0.29745026    -0.73700
O127        O  0.68282092  0.82318038  0.37418634    -0.86400
O128        O  0.65708592  0.01049743  0.34698594    -0.79300
C129        C  0.64184678  0.93099986  0.40580665     0.94600
C130        C  0.58451327  0.70294103  0.40253150     0.94400
Mg131      Mg  0.66651852  0.93203617  0.30615712     1.58000
O132        O  0.73669134  0.98475163  0.28298578    -0.79200
O133        O  0.58719708  0.88167112  0.32582752    -0.73400
O134        O  0.62568972  0.87844128  0.40384420    -0.79300
O135        O  0.68933951  0.66666175  0.36054119    -0.81000
O136        O  0.72971541  0.80218600  0.27032664    -0.79300
C137        C  0.57864117  0.86721183  0.34426681     0.88900
O138        O  0.67096478  0.85663530  0.29961240    -0.86400
O139        O  0.72356962  0.94853217  0.33130482    -0.86500
O140        O  0.79395562  0.94078042  0.31879591    -0.73600
Mg141      Mg  0.59907518  0.81259159  0.37827274     1.58000
O142        O  0.66310007  0.96623433  0.39132268    -0.81000
H143        H  0.54918960  0.68094499  0.33408384    -0.04700
O144        O  0.73651113  0.80523151  0.31846771    -0.86200
H145        H  0.81893872  0.83552831  0.32441466    -0.04500
H146        H  0.59693206  0.82155865  0.28478748    -0.04700
C147        C  0.77570667  0.81329568  0.32995266     0.88900
C148        C  0.57880321  0.71606876  0.34338439     0.89400
C149        C  0.62691904  0.81494491  0.29342113     0.89500
H150        H  0.80447928  0.00130921  0.33906648    -0.04700
O151        O  0.73955752  0.91529246  0.37599308    -0.73700
Mg152      Mg  0.75516576  0.86837852  0.29555832     1.58000
H153        H  0.75756140  0.85790760  0.38853884    -0.04700
C154        C  0.69699121  0.64771595  0.34398728     0.94500
O155        O  0.69372788  0.71474649  0.28302124    -0.80900
C156        C  0.71515911  0.75000067  0.26857630     0.94500
O157        O  0.57785602  0.74594963  0.40213592    -0.80900
Mg158      Mg  0.69389755  0.95708770  0.36039684     1.58200
O159        O  0.69724939  0.66977318  0.32698274    -0.79300
O160        O  0.66170889  0.01133720  0.31329062    -0.80900
C161        C  0.81006700  0.68949639  0.18444770     0.04100
C162        C  0.86268055  0.69088030  0.18387333     0.04100
C163        C  0.87840335  0.67343396  0.16606628    -0.16500
C164        C  0.84294787  0.65651544  0.14880236     0.04100
C165        C  0.79227274  0.65908794  0.14934876     0.04100
C166        C  0.77599225  0.67461086  0.16717985    -0.16500
H167        H  0.73623877  0.67505253  0.16763254     0.06100
H168        H  0.91807788  0.67295431  0.16565238     0.06100
O169        O  0.43998013  0.04742992  0.00541182    -0.86500
C170        C  0.47357975  0.94789978  0.04350896     0.89500
Mg171      Mg  0.40085566  0.01857161  0.97612273     1.58100
O172        O  0.59471418  0.05782505  0.01935054    -0.86300
O173        O  0.51769925  0.11608014  0.01888891    -0.73600
C174        C  0.54669191  0.91204386  0.93272780     0.94500
O175        O  0.36829374  0.91124068  0.01037541    -0.73400
O176        O  0.49677207  0.90488310  0.93336887    -0.80900
Mg177      Mg  0.39798190  0.99022498  0.03043893     1.58000
C178        C  0.71044657  0.01620941  0.99330987     0.94500
O179        O  0.41600674  0.06009645  0.05376456    -0.79200
H180        H  0.64710420  0.14031089  0.01369768    -0.04500
C181        C  0.52495788  0.90140241  0.99271390     0.89400
O182        O  0.48805809  0.06419541  0.96036648    -0.73700
O183        O  0.47687041  0.99250663  0.03751519    -0.86400
O184        O  0.68908345  0.01646420  0.01040472    -0.79300
C185        C  0.62911052  0.03588323  0.06918441     0.94600
C186        C  0.45338158  0.08790129  0.06716266     0.94400
Mg187      Mg  0.60209308  0.00972292  0.96945075     1.58000
O188        O  0.58406653  0.93984925  0.94612590    -0.79200
O189        O  0.63178229  0.08870832  0.98951391    -0.73400
O190        O  0.59127171  0.05042338  0.06777723    -0.79300
O191        O  0.31556712  0.98901708  0.02312614    -0.81000
O192        O  0.40880314  0.94952639  0.93211210    -0.79300
C193        C  0.62580431  0.09728282  0.00796306     0.88900
O194        O  0.52320529  0.00744282  0.96237418    -0.86400
O195        O  0.56009455  0.95251949  0.99447809    -0.86500
O196        O  0.48237526  0.88386969  0.98100091    -0.73600
Mg197      Mg  0.55009656  0.07608525  0.04225774     1.58000
O198        O  0.64112580  0.01328077  0.05457543    -0.81000
H199        H  0.47029289  0.12900819  0.99813376    -0.04700
O200        O  0.40536155  0.94212520  0.98053886    -0.86200
H201        H  0.35297192  0.85963941  0.98619138    -0.04500
H202        H  0.56357063  0.08203037  0.94795183    -0.04700
C203        C  0.37427146  0.90266688  0.99192616     0.88900
C204        C  0.47511621  0.09854710  0.00717612     0.89400
C205        C  0.52649645  0.05205035  0.95638085     0.89500
H206        H  0.52978042  0.87094128  0.00175643    -0.04700
O207        O  0.51201824  0.93575486  0.03952357    -0.73700
Mg208      Mg  0.44997850  0.92386441  0.95763173     1.58000
H209        H  0.43650565  0.91792002  0.05193827    -0.04700
C210        C  0.28962771  0.98373640  0.00657986     0.94500
O211        O  0.35895039  0.98667011  0.94531423    -0.80900
C212        C  0.37096463  0.96406711  0.93070515     0.94500
O213        O  0.50330220  0.09506428  0.06652088    -0.80900
Mg214      Mg  0.59922012  0.98137854  0.02376702     1.58200
O215        O  0.31099243  0.98348494  0.98948499    -0.79300
O216        O  0.68450667  0.01092839  0.97676369    -0.80900
O217        O  0.55902145  0.60812848  0.99368112    -0.86500
C218        C  0.52797504  0.47330515  0.95726099     0.89500
Mg219      Mg  0.59739686  0.61985292  0.02286464     1.58100
O220        O  0.40583830  0.46035962  0.98092863    -0.86300
O221        O  0.47940503  0.59549728  0.98066375    -0.73600
C222        C  0.45717318  0.36906797  0.06728210     0.94500
O223        O  0.63302721  0.54522424  0.98955533    -0.73400
O224        O  0.50639599  0.41262899  0.06638480    -0.80900
Mg225      Mg  0.60166428  0.59211332  0.96911226     1.58000
C226        C  0.29004696  0.30583867  0.00740807     0.94500
O227        O  0.58139111  0.64163973  0.94565972    -0.79200
H228        H  0.35140086  0.48855263  0.98551873    -0.04500
C229        C  0.47738329  0.37735643  0.00797786     0.89400
O230        O  0.50977300  0.57732294  0.03836450    -0.73700
O231        O  0.52359576  0.51441837  0.96277776    -0.86400
O232        O  0.31277727  0.32597946  0.99033023    -0.79300
C233        C  0.37480727  0.40230492  0.93146334     0.94600
C234        C  0.54289931  0.63085381  0.93260864     0.94400
Mg235      Mg  0.39840905  0.40780941  0.03077843     1.58000
O236        O  0.41868114  0.35828257  0.05423117    -0.79200
O237        O  0.36704743  0.45469938  0.01033529    -0.73400
O238        O  0.41168536  0.45485133  0.93285418    -0.79300
O239        O  0.68433863  0.67367539  0.97586863    -0.81000
O240        O  0.58838798  0.54506976  0.06703628    -0.79300
C241        C  0.37342880  0.46816672  0.99179300     0.88900
O242        O  0.47647813  0.48550359  0.03711285    -0.86400
O243        O  0.44105164  0.39179340  0.00620968    -0.86500
O244        O  0.52066855  0.40442469  0.01922664    -0.73600
Mg245      Mg  0.44917659  0.52232665  0.95786909     1.58000
O246        O  0.36179430  0.36807995  0.94621036    -0.81000
H247        H  0.52690904  0.65803452  0.00068931    -0.04700
O248        O  0.59423586  0.53956283  0.01896199    -0.86200
H249        H  0.64867453  0.51137104  0.01437185    -0.04500
H250        H  0.43461807  0.51917194  0.05086278    -0.04700
C251        C  0.62664582  0.53175660  0.00809757     0.88900
C252        C  0.52268982  0.62256549  0.99191281     0.89400
C253        C  0.47209890  0.52661663  0.04262991     0.89500
H254        H  0.47316370  0.34188692  0.99920122    -0.04700
O255        O  0.49030090  0.42259892  0.96152647    -0.73700
Mg256      Mg  0.55089709  0.47759493  0.04202137     1.58000
H257        H  0.56545633  0.48074970  0.94902822    -0.04700
C258        C  0.71002526  0.69408588  0.99248253     0.94500
O259        O  0.63827917  0.63184198  0.05368070    -0.80900
C260        C  0.62526551  0.59761621  0.06842754     0.94500
O261        O  0.49367708  0.58729197  0.93350563    -0.80900
Mg262      Mg  0.40267669  0.38006934  0.97702621     1.58200
O263        O  0.68729617  0.67394445  0.00956048    -0.79300
O264        O  0.31573333  0.32624832  0.02402208    -0.80900
O265        O  0.04482823  0.43761531  0.99529488    -0.86500
C266        C  0.95178601  0.47341249  0.95551929     0.89500
Mg267      Mg  0.01243896  0.40012538  0.02467899     1.58100
O268        O  0.06240341  0.59222641  0.98039688    -0.86300
O269        O  0.11722073  0.51169814  0.98164110    -0.73600
C270        C  0.90984276  0.55439864  0.06651874     0.94500
O271        O  0.90998959  0.37089516  0.98932133    -0.73400
O272        O  0.90028954  0.50339603  0.06632096    -0.80900
Mg273      Mg  0.98951208  0.39556269  0.96984754     1.58000
C274        C  0.02437789  0.71362565  0.00459296     0.94500
O275        O  0.06021482  0.40943766  0.94690321    -0.79200
H276        H  0.14448017  0.64109859  0.98758709    -0.04500
C277        C  0.90341200  0.53008914  0.00613831     0.89400
O278        O  0.05943131  0.48746748  0.04023519    -0.73700
O279        O  0.99573497  0.47526922  0.96156226    -0.86400
O280        O  0.02509168  0.69070899  0.98790146    -0.79300
C281        C  0.04597172  0.62877843  0.93021685     0.94600
C282        C  0.09022278  0.44552852  0.93336896     0.94400
Mg283      Mg  0.01055416  0.60436675  0.03004031     1.58000
O284        O  0.93985111  0.59049078  0.05298485    -0.79200
O285        O  0.09007681  0.62903445  0.01056641    -0.73400
O286        O  0.05995131  0.59050056  0.93168696    -0.79300
O287        O  0.98394152  0.31176024  0.97845905    -0.81000
O288        O  0.94011597  0.40943003  0.06820065    -0.79300
C289        C  0.10070350  0.62184523  0.99245008     0.88900
O290        O  0.00433162  0.52466027  0.03832540    -0.86400
O291        O  0.95523828  0.56231403  0.00459295    -0.86500
O292        O  0.88284577  0.48823026  0.01824627    -0.73600
Mg293      Mg  0.08108253  0.54631976  0.95759344     1.58000
O294        O  0.02227622  0.64029556  0.94457029    -0.81000
H295        H  0.12508666  0.46297973  0.00322687    -0.04700
O296        O  0.93766363  0.40770283  0.01949086    -0.86200
H297        H  0.85558673  0.35883067  0.01230085    -0.04500
H298        H  0.07881942  0.56314158  0.05286722    -0.04700
C299        C  0.89936331  0.37808404  0.00743773     0.88900
C300        C  0.09665440  0.46983978  0.99374925     0.89400
C301        C  0.04828059  0.52651717  0.04436841     0.89500
H302        H  0.87498031  0.53694903  0.99666078    -0.04700
O303        O  0.94063552  0.51246231  0.95965263    -0.73700
Mg304      Mg  0.91898419  0.45360917  0.04229399     1.58000
H305        H  0.92124732  0.43678852  0.94702049    -0.04700
C306        C  0.97568831  0.28630411  0.99529498     0.94500
O307        O  0.97779131  0.35963446  0.05531811    -0.80900
C308        C  0.95409613  0.37115277  0.06967137     0.94500
O309        O  0.09977623  0.49653136  0.93356621    -0.80900
Mg310      Mg  0.98762802  0.59980420  0.97520900     1.58200
O311        O  0.97497525  0.30922081  0.01198655    -0.79300
O312        O  0.01612428  0.68816941  0.02142890    -0.80900
O313        O  0.27651314  0.05140431  0.66858451    -0.86500
C314        C  0.37315686  0.18498921  0.70646941     0.89500
Mg315      Mg  0.30619069  0.04285256  0.63949298     1.58100
O316        O  0.26356532  0.19470072  0.68142203    -0.86300
O317        O  0.20612403  0.05915262  0.68109228    -0.73600
C318        C  0.41556994  0.29700279  0.59736041     0.94500
O319        O  0.41288466  0.11826681  0.67406406    -0.73400
O320        O  0.42223052  0.25399607  0.59775580    -0.80900
Mg321      Mg  0.33356061  0.06789872  0.69373323     1.58000
C322        C  0.30307964  0.35221546  0.65590402     0.94500
O323        O  0.26338516  0.01518028  0.71690369    -0.79200
H324        H  0.18113769  0.16440068  0.67547410    -0.04500
C325        C  0.42127491  0.28387086  0.65650741     0.89400
O326        O  0.26053085  0.08464668  0.62389588    -0.73700
O327        O  0.32911218  0.14329825  0.70027794    -0.86400
O328        O  0.30282230  0.33015804  0.67290843    -0.79300
C329        C  0.28491254  0.24992656  0.73131437     0.94600
C330        C  0.23432621  0.02421430  0.72993515     0.94400
Mg331      Mg  0.31401696  0.25278696  0.63238317     1.58000
O332        O  0.38625085  0.30556143  0.61036498    -0.79200
O333        O  0.23357216  0.20232723  0.65161029    -0.73400
O334        O  0.27035696  0.19774177  0.72956300    -0.79300
O335        O  0.33837114  0.98859865  0.68659964    -0.81000
O336        O  0.37440353  0.12150350  0.59604655    -0.79300
C337        C  0.22437033  0.18663542  0.66993662     0.88900
O338        O  0.31726400  0.17675905  0.62570384    -0.86400
O339        O  0.36996681  0.26779036  0.65765048    -0.86500
O340        O  0.43991024  0.25892475  0.64524809    -0.73600
Mg341      Mg  0.24490980  0.13155243  0.70433076     1.58000
O342        O  0.30634344  0.28518278  0.71686998    -0.81000
H343        H  0.19560531  0.99862686  0.66082133    -0.04700
O344        O  0.38191893  0.12403825  0.64422025    -0.86200
H345        H  0.46451957  0.15485750  0.64992693    -0.04500
H346        H  0.24252582  0.14203035  0.61134974    -0.04700
C347        C  0.42144347  0.13272909  0.65562508     0.88900
C348        C  0.22507305  0.03438558  0.66991564     0.89400
C349        C  0.27266433  0.13518070  0.61978411     0.89500
H350        H  0.45088682  0.31899511  0.66580844    -0.04700
O351        O  0.38483034  0.23540363  0.70244061    -0.73700
Mg352      Mg  0.40101182  0.18735188  0.62161860     1.58000
H353        H  0.40314510  0.17837595  0.71510333    -0.04700
C354        C  0.34506819  0.96904633  0.67001765     0.94500
O355        O  0.33699356  0.03370997  0.60856771    -0.80900
C356        C  0.35824782  0.06894514  0.59408398     0.94500
O357        O  0.22565459  0.06595449  0.72875303    -0.80900
Mg358      Mg  0.33904098  0.27636701  0.68642997     1.58200
O359        O  0.34300147  0.98944201  0.65290446    -0.79300
O360        O  0.31073371  0.33327177  0.63934999    -0.80900
C361        C  0.15711149  0.34338673  0.85109040     0.04100
C362        C  0.20778669  0.34081412  0.85054488     0.04100
C363        C  0.22406788  0.32528922  0.83271441    -0.16500
C364        C  0.18999462  0.31040296  0.81544621     0.04100
C365        C  0.13738077  0.30901847  0.81601975     0.04100
C366        C  0.12165680  0.32646577  0.83382627    -0.16500
H367        H  0.08198179  0.32694586  0.83423940     0.06100
H368        H  0.26382211  0.32484848  0.83226227     0.06100
C369        C  0.14121211  0.81070224  0.85186585     0.04100
C370        C  0.19343388  0.86283565  0.85115210     0.04100
C371        C  0.20847853  0.89568731  0.83339342    -0.16500
C372        C  0.17207382  0.87787919  0.81658243     0.04100
C373        C  0.11966530  0.82679488  0.81749443     0.04100
C374        C  0.10478847  0.79343091  0.83502187    -0.16500
H375        H  0.06453943  0.75381639  0.83556996     0.06100
H376        H  0.24855565  0.93543955  0.83268621     0.06100
O377        O  0.93222721  0.22855337  0.67242531    -0.86500
C378        C  0.80362225  0.18898480  0.71255005     0.89500
Mg379      Mg  0.93687469  0.26849873  0.64379668     1.58100
O380        O  0.79391506  0.07295527  0.68520862    -0.86300
O381        O  0.92972919  0.15226687  0.68423607    -0.73600
C382        C  0.67810382  0.12418898  0.60313773     0.94500
O383        O  0.86596194  0.29662591  0.68063265    -0.73400
O384        O  0.72025923  0.17460730  0.60393335    -0.80900
Mg385      Mg  0.91969405  0.26810547  0.69874314     1.58000
C386        C  0.63363605  0.95417246  0.66054567     0.94500
O387        O  0.97584669  0.25066003  0.72067739    -0.79200
H388        H  0.82574008  0.02381980  0.67671438    -0.04500
C389        C  0.69794364  0.13947054  0.66305897     0.89400
O390        O  0.89437713  0.18257424  0.62732723    -0.73700
O391        O  0.84554382  0.18774818  0.70593359    -0.86400
O392        O  0.65758393  0.97519050  0.67741046    -0.79300
C393        C  0.74206445  0.03234355  0.73523249     0.94600
C394        C  0.96900336  0.21276197  0.73352547     0.94400
Mg395      Mg  0.72837989  0.06692444  0.63672683     1.58000
O396        O  0.67185907  0.08559153  0.61554728    -0.79200
O397        O  0.78294329  0.03856500  0.65458286    -0.73400
O398        O  0.79418122  0.07074232  0.73380433    -0.79300
O399        O  0.99845110  0.35227118  0.69091786    -0.81000
O400        O  0.85384136  0.26313900  0.60168300    -0.79300
C401        C  0.80158571  0.04403429  0.67253803     0.88900
O402        O  0.80229086  0.14700490  0.62963129    -0.86400
O403        O  0.71605885  0.10582698  0.66320705    -0.86500
O404        O  0.72028443  0.18360989  0.65202005    -0.77200
Mg405      Mg  0.85898756  0.11583039  0.70819421     1.58000
O406        O  0.70650737  0.02111066  0.72105356    -0.81000
H407        H  0.98682916  0.20399645  0.66330960    -0.04700
O408        O  0.85558453  0.26197890  0.65009726    -0.86200
H409        H  0.82456616  0.31208544  0.65819502    -0.04500
H410        H  0.83663170  0.10876637  0.61396481    -0.04700
C411        C  0.84814572  0.29142703  0.66258928     0.88900
C412        C  0.95152753  0.19595129  0.67299097     0.89400
C413        C  0.84373129  0.14480574  0.62304989     0.89500
H414        H  0.66328272  0.13199301  0.67298968    -0.04700
O415        O  0.75323429  0.15036568  0.70832994    -0.73700
Mg416      Mg  0.78986858  0.21952474  0.62762783     1.58000
H417        H  0.81000010  0.22464776  0.72170981    -0.04700
C418        C  0.01561349  0.37911227  0.67431658     0.94500
O419        O  0.94260097  0.31079622  0.61361320    -0.80900
C420        C  0.90643280  0.29951737  0.59961517     0.94500
O421        O  0.92739026  0.16196166  0.73255184    -0.80900
Mg422      Mg  0.71174833  0.06476705  0.69146308     1.58200
O423        O  0.99169361  0.35786487  0.65748209    -0.79300
O424        O  0.64998455  0.98202532  0.64412689    -0.80900
O425        O  0.71527010  0.60139721  0.66096213    -0.86500
C426        C  0.84886133  0.70189277  0.62358809     0.89500
Mg427      Mg  0.70312143  0.63179807  0.68954875     1.58100
O428        O  0.86381566  0.59662448  0.64958155    -0.86300
O429        O  0.72780607  0.53345755  0.64886514    -0.73600
C430        C  0.95486889  0.75027945  0.73494740     0.94500
O431        O  0.77620531  0.73718358  0.65474150    -0.73400
O432        O  0.91101105  0.75555575  0.73363589    -0.80900
Mg433      Mg  0.72987612  0.65648609  0.63532160     1.58000
C434        C  0.02229695  0.64593316  0.67678909     0.94500
O435        O  0.68105473  0.58443945  0.61242005    -0.79200
H436        H  0.83645152  0.51512576  0.65616136    -0.04500
C437        C  0.94565173  0.75535297  0.67482398     0.89400
O438        O  0.74683671  0.59007887  0.70658281    -0.73700
O439        O  0.80823339  0.65674299  0.62957908    -0.86400
O440        O  0.00056319  0.64372603  0.65952796    -0.79300
C441        C  0.92302366  0.61923513  0.60015142     0.94600
C442        C  0.69317164  0.55763751  0.59940659     0.94400
Mg443      Mg  0.91717519  0.64975767  0.69935606     1.58000
O444        O  0.96596269  0.72210727  0.72218738    -0.79200
O445        O  0.87090103  0.56898169  0.67991331    -0.73400
O446        O  0.86998678  0.60184659  0.60128875    -0.79300
O447        O  0.64705026  0.65610201  0.64130402    -0.81000
O448        O  0.77710272  0.70527211  0.73340767    -0.79300
C449        C  0.85667764  0.55855273  0.66146689     0.88900
O450        O  0.83855763  0.64924866  0.70530126    -0.86400
O451        O  0.93101561  0.70444357  0.67370884    -0.86500
O452        O  0.91896092  0.77263554  0.68577630    -0.73600
Mg453      Mg  0.80145052  0.57445903  0.62601443     1.58000
O454        O  0.95684090  0.64313205  0.61486124    -0.81000
H455        H  0.66559601  0.52000102  0.66884574    -0.04700
O456        O  0.78318155  0.70932671  0.68502472    -0.86200
H457        H  0.81062478  0.79087991  0.67853127    -0.04500
H458        H  0.80530884  0.57546410  0.72021182    -0.04700
C459        C  0.79037981  0.74749063  0.67318660     0.88900
C460        C  0.70094593  0.55054041  0.65984248     0.89400
C461        C  0.79762786  0.60418963  0.71123644     0.89500
H462        H  0.98107870  0.78574708  0.66581684    -0.04700
O463        O  0.89973133  0.71638912  0.62820479    -0.73700
Mg464      Mg  0.84551836  0.73184392  0.70862965     1.58000
H465        H  0.84081761  0.73040822  0.61463478    -0.04700
C466        C  0.62587970  0.66255166  0.65753274     0.94500
O467        O  0.69064609  0.66506386  0.71951717    -0.80900
C468        C  0.72432804  0.68934452  0.73422878     0.94500
O469        O  0.73678847  0.55203963  0.60086869    -0.80900
Mg470      Mg  0.94359800  0.67478056  0.64507658     1.58200
O471        O  0.64679098  0.66352235  0.67485662    -0.79300
O472        O  0.00074573  0.65153360  0.69308029    -0.80900
C473        C  0.61947492  0.78186418  0.84751275     0.04100
C474        C  0.62417710  0.83579293  0.84768364     0.04100
C475        C  0.64282686  0.86972133  0.83034638    -0.16500
C476        C  0.65677241  0.85030944  0.81279598     0.04100
C477        C  0.65171195  0.79588348  0.81260543     0.04100
C478        C  0.63309687  0.76215747  0.83004859    -0.16500
H479        H  0.62934874  0.72046167  0.83006186     0.06100
H480        H  0.64652055  0.91139066  0.83051314     0.06100
C481        C  0.01619008  0.53334499  0.48228045     0.04100
C482        C  0.00981777  0.47847751  0.48192459     0.04100
C483        C  0.99370282  0.44565225  0.49960432    -0.16500
C484        C  0.98387824  0.46658487  0.51761328     0.04100
C485        C  0.99025062  0.52145239  0.51796919     0.04100
C486        C  0.00636550  0.55427778  0.50028942    -0.16500
H487        H  0.01116781  0.59641700  0.50053319     0.06100
H488        H  0.98890049  0.40351262  0.49936055     0.06100
C489        C  0.51702346  0.53778169  0.48366213     0.04100
C490        C  0.46179706  0.49012779  0.48403134     0.04100
C491        C  0.44501195  0.45242363  0.50036688    -0.16500
C492        C  0.48304123  0.46217244  0.51623324     0.04100
C493        C  0.53826777  0.50982606  0.51586391     0.04100
C494        C  0.55505261  0.54753081  0.49952856    -0.16500
H495        H  0.59749353  0.58437626  0.49917277     0.06100
H496        H  0.40257122  0.41557734  0.50072249     0.06100
C497        C  0.53155288  0.99072760  0.48504556     0.04100
C498        C  0.47446719  0.97536744  0.48126031     0.04100
C499        C  0.44344810  0.98480192  0.49621744    -0.16500
C500        C  0.46852723  0.00919693  0.51484522     0.04100
C501        C  0.52561268  0.02455665  0.51863049     0.04100
C502        C  0.55663191  0.01512204  0.50367345    -0.16500
H503        H  0.60050472  0.02683322  0.50653865     0.06100
H504        H  0.39957485  0.97309106  0.49335218     0.06100
C505        C  0.00371256  0.94983747  0.00029197     0.04100
C506        C  0.05347947  0.00350853  0.00226353     0.04100
C507        C  0.04983572  0.05371546  0.00197858     0.04100
C508        C  0.99635384  0.05009306  0.99959551     0.04100
C509        C  0.94658677  0.99642204  0.99762412     0.04100
C510        C  0.95023058  0.94621507  0.99790905     0.04100
C511        C  0.72197893  0.33362887  0.33091688     0.04100
C512        C  0.66804803  0.28380015  0.33250833     0.04100
C513        C  0.61886175  0.28818669  0.33582608     0.04100
C514        C  0.62367675  0.34231408  0.33783659     0.04100
C515        C  0.67779784  0.39216515  0.33664296     0.04100
C516        C  0.72671883  0.38765810  0.33292489     0.04100
C517        C  0.27808554  0.66629960  0.66897901     0.04100
C518        C  0.33201673  0.71612791  0.66738731     0.04100
C519        C  0.38120249  0.71174047  0.66406937     0.04100
C520        C  0.37638675  0.65761281  0.66205865     0.04100
C521        C  0.32226539  0.60776226  0.66325220     0.04100
C522        C  0.27334506  0.61227016  0.66697062     0.04100
C523        C  0.07584436  0.64679830  0.67752262    -0.16700
C524        C  0.12348827  0.65378558  0.67679926     0.07400
C525        C  0.17991225  0.66396971  0.67481581     0.09200
C526        C  0.22654301  0.66925338  0.67243297    -0.17500
C527        C  0.57411962  0.66508791  0.65653810    -0.16700
C528        C  0.52812189  0.66209234  0.65662227     0.07400
C529        C  0.47340941  0.65665726  0.65763875     0.09200
C530        C  0.42781289  0.65417128  0.65923953    -0.17500
C531        C  0.70347309  0.70405074  0.75189346    -0.16700
C532        C  0.68971076  0.72370397  0.76571916     0.07400
C533        C  0.67625459  0.75064345  0.78137050     0.09200
C534        C  0.66542654  0.77321321  0.79504648    -0.17500
C535        C  0.65879537  0.53771645  0.58148815    -0.16700
C536        C  0.63326146  0.52944336  0.56577199     0.07400
C537        C  0.60435963  0.52476407  0.54745894     0.09200
C538        C  0.57712708  0.52028709  0.53245128    -0.17500
C539        C  0.94419190  0.60726003  0.58196085    -0.16700
C540        C  0.95790431  0.59033912  0.56731473     0.07400
C541        C  0.97064076  0.56626868  0.55052663     0.09200
C542        C  0.97991217  0.54502753  0.53603766    -0.17500
C543        C  0.43711503  0.76292734  0.66276527    -0.16700
C544        C  0.48398525  0.80470061  0.66175733     0.07400
C545        C  0.53861282  0.85421670  0.66080758     0.09200
C546        C  0.58372125  0.89826238  0.66037111    -0.17500
C547        C  0.21754922  0.56145283  0.66890238    -0.16700
C548        C  0.16982239  0.52166930  0.67080071     0.07400
C549        C  0.11365035  0.47540697  0.67291058     0.09200
C550        C  0.06700300  0.43361686  0.67413269    -0.17500
C551        C  0.67598600  0.88751549  0.79545989    -0.16700
C552        C  0.69131016  0.92204168  0.78201327     0.07400
C553        C  0.70868528  0.96361144  0.76667517     0.09200
C554        C  0.72360292  0.99741865  0.75300298    -0.17500
C555        C  0.55310031  0.04958210  0.53774075    -0.16700
C556        C  0.57742561  0.06970225  0.55353092     0.07400
C557        C  0.60853913  0.09182806  0.57172328     0.09200
C558        C  0.63819187  0.10850782  0.58665863    -0.17500
C559        C  0.92483481  0.33157202  0.58114387    -0.16700
C560        C  0.93882461  0.36186461  0.56642518     0.07400
C561        C  0.95437256  0.39916744  0.54970356     0.09200
C562        C  0.96760832  0.43080557  0.53537584    -0.17500
C563        C  0.99141606  0.77325902  0.75226919    -0.16700
C564        C  0.01971397  0.78617154  0.76749131     0.07400
C565        C  0.05195389  0.79784709  0.78546199     0.09200
C566        C  0.08094480  0.80876152  0.80046019    -0.17500
C567        C  0.09954122  0.28884248  0.79854800    -0.16700
C568        C  0.07048719  0.27004143  0.78346501     0.07400
C569        C  0.03721150  0.24753969  0.76559089     0.09200
C570        C  0.00763907  0.22977728  0.75058559    -0.17500
C571        C  0.31639715  0.55180882  0.66063246    -0.16700
C572        C  0.30949687  0.50447435  0.65858197     0.07400
C573        C  0.30190447  0.44904673  0.65665165     0.09200
C574        C  0.29887400  0.40310099  0.65573313    -0.17500
C575        C  0.33727670  0.77195818  0.66898254    -0.16700
C576        C  0.34331403  0.81912049  0.66984584     0.07400
C577        C  0.34951725  0.87407374  0.67038073     0.09200
C578        C  0.35107333  0.91932245  0.67044965    -0.17500
C579        C  0.21476337  0.98855438  0.74755249    -0.16700
C580        C  0.20493472  0.96334644  0.76339843     0.07400
C581        C  0.19673364  0.93633858  0.78237278     0.09200
C582        C  0.18822853  0.91199678  0.79836565    -0.17500
C583        C  0.21100370  0.29785557  0.79726487    -0.16700
C584        C  0.23140901  0.28930426  0.78244369     0.07400
C585        C  0.25540920  0.27921552  0.76513992     0.09200
C586        C  0.27257447  0.26819445  0.74999524    -0.17500
C587        C  0.36849965  0.04999089  0.57510744    -0.16700
C588        C  0.38458835  0.03763446  0.55995811     0.07400
C589        C  0.40982038  0.02613099  0.54329251     0.09200
C590        C  0.43513255  0.01789868  0.52994695    -0.17500
C591        C  0.46557452  0.42338987  0.53299603    -0.16700
C592        C  0.45692108  0.39502864  0.54790895     0.07400
C593        C  0.44872916  0.36373198  0.56570611     0.09200
C594        C  0.43781256  0.33520120  0.58068050    -0.17500
C595        C  0.97177440  0.23138661  0.99579678    -0.16700
C596        C  0.97580043  0.18904592  0.99674774     0.07400
C597        C  0.98466283  0.14189783  0.99803058     0.09200
C598        C  0.99187252  0.10143536  0.99894934    -0.17500
C599        C  0.00819410  0.89849514  0.00093807    -0.16700
C600        C  0.01540363  0.85803249  0.00185687     0.07400
C601        C  0.02426566  0.81088403  0.00313987     0.09200
C602        C  0.02829154  0.76854319  0.00409102    -0.17500
C603        C  0.06173931  0.66353979  0.91223906    -0.16700
C604        C  0.08026305  0.69737757  0.89845482     0.07400
C605        C  0.10420791  0.73903285  0.88294612     0.09200
C606        C  0.12332136  0.77355968  0.86938518    -0.17500
C607        C  0.11058414  0.42630017  0.91653545    -0.16700
C608        C  0.12211053  0.40733818  0.90178098     0.07400
C609        C  0.13273477  0.38387756  0.88411539     0.09200
C610        C  0.14217126  0.36442266  0.86902368    -0.17500
C611        C  0.10068294  0.10908910  0.00410194    -0.16700
C612        C  0.14202173  0.15589335  0.00566945     0.07400
C613        C  0.19094277  0.21051955  0.00708341     0.09200
C614        C  0.23462738  0.25571109  0.00770154    -0.17500
C615        C  0.76544342  0.74421536  0.99218872    -0.16700
C616        C  0.80912634  0.78940851  0.99280620     0.07400
C617        C  0.85804554  0.84403624  0.99421926     0.09200
C618        C  0.89938342  0.89084131  0.99578613    -0.17500
C619        C  0.55694338  0.66718994  0.91540055    -0.16700
C620        C  0.57006393  0.69335657  0.89980649     0.07400
C621        C  0.58647841  0.72152184  0.88109868     0.09200
C622        C  0.60123204  0.74688057  0.86535577    -0.17500
C623        C  0.24396376  0.35294410  0.86802133    -0.16700
C624        C  0.27570966  0.36113809  0.88198771     0.07400
C625        C  0.31301426  0.37115010  0.89833994     0.09200
C626        C  0.34327357  0.38266030  0.91297496    -0.17500
C627        C  0.76382035  0.01690814  0.99293203    -0.16700
C628        C  0.80468577  0.01033002  0.99327032     0.07400
C629        C  0.85083588  0.99991866  0.99424979     0.09200
C630        C  0.89211437  0.99417913  0.99553083    -0.17500
C631        C  0.23625211  0.98303367  0.00695763    -0.16700
C632        C  0.19538441  0.98960789  0.00661901     0.07400
C633        C  0.14923167  0.00001492  0.00563891     0.09200
C634        C  0.10795184  0.00575190  0.00435732    -0.17500
C635        C  0.33742966  0.94984161  0.91242520    -0.16700
C636        C  0.30541108  0.93119632  0.89810792     0.07400
C637        C  0.26579396  0.90579879  0.88201627     0.09200
C638        C  0.23201730  0.88448845  0.86829134    -0.17500
C639        C  0.56298634  0.89156430  0.91544441    -0.16700
C640        C  0.57799369  0.87973680  0.89993471     0.07400
C641        C  0.59557695  0.86808486  0.88133541     0.09200
C642        C  0.60956282  0.85610865  0.86562842    -0.17500
C643        C  0.88948051  0.57362455  0.08335259    -0.16700
C644        C  0.87795256  0.59258165  0.09810802     0.07400
C645        C  0.86732649  0.61603528  0.11577504     0.09200
C646        C  0.85788883  0.63548461  0.13086796    -0.17500
C647        C  0.75609666  0.64696257  0.13187227    -0.16700
C648        C  0.72435368  0.63877317  0.11790534     0.07400
C649        C  0.68705346  0.62876648  0.10155212     0.09200
C650        C  0.65679736  0.61725962  0.08691633    -0.17500
C651        C  0.66278918  0.22797056  0.33091235    -0.16700
C652        C  0.65675533  0.18080983  0.33004781     0.07400
C653        C  0.65055761  0.12585902  0.32951125     0.09200
C654        C  0.64900600  0.08061249  0.32944122    -0.17500
C655        C  0.68366513  0.44811827  0.33926195    -0.16700
C656        C  0.69056581  0.49545305  0.34131161     0.07400
C657        C  0.69816017  0.55088158  0.34324084     0.09200
C658        C  0.70119323  0.59682851  0.34415857    -0.17500
C659        C  0.63159580  0.94995422  0.42478326    -0.16700
C660        C  0.61550384  0.96230656  0.43993270     0.07400
C661        C  0.59026581  0.97380277  0.45659815     0.09200
C662        C  0.56494924  0.98202942  0.46994356    -0.17500
C663        C  0.56226889  0.66474407  0.41921170    -0.16700
C664        C  0.55134804  0.63621535  0.43418677     0.07400
C665        C  0.54314981  0.60492124  0.45198497     0.09200
C666        C  0.53449206  0.57656205  0.46689869    -0.17500
C667        C  0.72749677  0.73172919  0.24989611    -0.16700
C668        C  0.74466078  0.72070204  0.23475241     0.07400
C669        C  0.76865858  0.71060496  0.21744973     0.09200
C670        C  0.78906128  0.70204766  0.20262908    -0.17500
C671        C  0.41634122  0.10166599  0.33952221    -0.16700
C672        C  0.46145012  0.14571132  0.33908636     0.07400
C673        C  0.51607859  0.19522657  0.33813733     0.09200
C674        C  0.56294932  0.23699940  0.33712985    -0.17500
C675        C  0.93306532  0.56630448  0.32575958    -0.16700
C676        C  0.88641594  0.52451714  0.32698249     0.07400
C677        C  0.83024223  0.47825787  0.32909346     0.09200
C678        C  0.78251466  0.43847576  0.33099260    -0.17500
C679        C  0.07523484  0.66835286  0.41874836    -0.16700
C680        C  0.06124463  0.63806172  0.43346745     0.07400
C681        C  0.04569613  0.60076080  0.45018967     0.09200
C682        C  0.03246009  0.56912395  0.46451778    -0.17500
C683        C  0.36187903  0.89142181  0.41323334    -0.16700
C684        C  0.39153454  0.90810061  0.42816809     0.07400
C685        C  0.42265183  0.93022463  0.44635991     0.09200
C686        C  0.44697942  0.95034329  0.46214990    -0.17500
C687        C  0.90052265  0.71105746  0.20134437    -0.16700
C688        C  0.92957987  0.72986097  0.21642653     0.07400
C689        C  0.96285930  0.75236684  0.23429964     0.09200
C690        C  0.99243381  0.77013293  0.24930433    -0.17500
C691        C  0.93832979  0.33639412  0.08764985    -0.16700
C692        C  0.91980651  0.30256035  0.10143533     0.07400
C693        C  0.89586155  0.26091008  0.11694566     0.09200
C694        C  0.87674721  0.22638640  0.13050757    -0.17500
C695        C  0.66264425  0.05010860  0.08746461    -0.16700
C696        C  0.69466086  0.06875374  0.10178238     0.07400
C697        C  0.73427531  0.09415074  0.11787477     0.09200
C698        C  0.76804988  0.11546017  0.13160030    -0.17500
C699        C  0.78530840  0.01137548  0.25233625    -0.16700
C700        C  0.79513374  0.03658488  0.23649075     0.07400
C701        C  0.80333088  0.06359601  0.21751727     0.09200
C702        C  0.81183388  0.08794135  0.20152525    -0.17500
C703        C  0.39883613  0.25304699  0.13453634    -0.16700
C704        C  0.41359073  0.27840408  0.11879309     0.07400
C705        C  0.43000678  0.30656735  0.10008489     0.09200
C706        C  0.44312849  0.33273267  0.08449052    -0.17500
C707        C  0.43708648  0.10837670  0.08444704    -0.16700
C708        C  0.42207893  0.12019983  0.09995760     0.07400
C709        C  0.40449537  0.13184709  0.11855771     0.09200
C710        C  0.39050881  0.14382097  0.13426502    -0.17500
C711        C  0.27646713  0.00250881  0.24688924    -0.16700
C712        C  0.29138445  0.03631784  0.23321758     0.07400
C713        C  0.30875898  0.07788892  0.21787988     0.09200
C714        C  0.32408260  0.11241536  0.20443330    -0.17500
C715        C  0.42593966  0.33483049  0.34335472    -0.16700
C716        C  0.47193829  0.33782807  0.34327098     0.07400
C717        C  0.52665215  0.34326625  0.34225525     0.09200
C718        C  0.57224986  0.34575453  0.34065513    -0.17500
C719        C  0.92421782  0.35312471  0.32237372    -0.16700
C720        C  0.87657494  0.34613981  0.32309727     0.07400
C721        C  0.82015192  0.33595797  0.32508069     0.09200
C722        C  0.77352165  0.33067539  0.32746332    -0.17500
C723        C  0.02015651  0.45490227  0.46385623    -0.16700
C724        C  0.02942788  0.43366030  0.44936750     0.07400
C725        C  0.04216379  0.40958826  0.43257977     0.09200
C726        C  0.05587530  0.39266574  0.41793389    -0.17500
C727        C  0.42293971  0.47966336  0.46744295    -0.16700
C728        C  0.39570842  0.47518068  0.45243434     0.07400
C729        C  0.36680710  0.47049297  0.43412038     0.09200
C730        C  0.34127258  0.46221326  0.41840402    -0.17500
C731        C  0.00863962  0.22666283  0.24762506    -0.16700
C732        C  0.98034317  0.21375538  0.23240262     0.07400
C733        C  0.94810560  0.20208669  0.21443159     0.09200
C734        C  0.91911653  0.19117739  0.19943306    -0.17500
C735        C  0.29658184  0.29586887  0.24799908    -0.16700
C736        C  0.31034583  0.27621879  0.23417284     0.07400
C737        C  0.32380503  0.24928285  0.21852109     0.09200
C738        C  0.33463585  0.22671512  0.20484517    -0.17500
loop_ 
_geom_bond_atom_site_label_1 
_geom_bond_atom_site_label_2 
_geom_bond_distance 
_geom_bond_site_symmetry_2 
_ccdc_geom_bond_type 
O1           Mg3   2.153       .  S
O1           Mg9   2.162       .  S
O1           C36   1.235       .  S
C2           O15   1.236       .  S
C2           O39   1.270       .  A
C2           H41   1.081       .  S
Mg3          O32   2.165       .  S
Mg3          O47   2.307   1_455  S
Mg3          O43   2.276       .  S
Mg3          O14   2.299       .  S
O4          Mg46   2.161       .  S
O4          Mg29   2.155       .  S
O4           C25   1.235       .  S
O5           C36   1.269       .  A
O5          Mg29   2.299       .  S
C6            O8   1.271       .  A
C6           O20   1.273       .  A
C6          C730   1.437       .  S
O7           C35   1.270       .  A
O7           Mg9   2.300       .  S
O8          Mg40   2.270       .  S
Mg9          O15   2.163       .  S
Mg9          O23   2.283   1_455  S
Mg9          O11   2.302       .  S
C10          O48   1.272       .  A
C10          O16   1.274       .  A
C10         C715   1.442       .  S
O11          C18   1.273       .  A
H12          C25   1.081       .  S
C13          O27   1.236       .  S
C13          O28   1.270       .  A
C13          H38   1.081       .  S
O14          C37   1.269       .  A
O15         Mg29   2.166       .  S
O16         Mg46   2.312       .  S
C17          O30   1.271       .  A
C17          O22   1.274       .  A
C17         C735   1.440       .  S
C18          O45   1.271       .  A
C18         C731   1.439       .  S
Mg19         O26   2.157       .  S
Mg19         O27   2.164       .  S
Mg19         O20   2.300       .  S
Mg19         O21   2.298       .  S
Mg19         O48   2.278       .  S
O21          C25   1.269       .  A
O22         Mg29   2.307       .  S
O23          C42   1.272       .  A
O24          C44   1.273       .  A
O24         Mg40   2.305       .  S
O26         Mg40   2.161       .  S
O26          C37   1.235       .  S
O27         Mg46   2.156       .  S
O28         Mg40   2.302       .  S
Mg29         O45   2.274       .  S
O30         Mg46   2.275       .  S
H31          C36   1.081       .  S
O32         Mg40   2.155       .  S
O32          C35   1.235       .  S
H33          C35   1.081       .  S
H34          C37   1.081       .  S
O39         Mg46   2.304       .  S
C42          O47   1.274       .  A
C42         C719   1.443       .  S
O43          C44   1.271       .  A
C44         C726   1.440       .  S
C49         C714   1.444       .  S
C49          C50   1.414       .  A
C49          C54   1.404       .  A
C50         C738   1.449       .  S
C50          C51   1.402       .  A
C51          H56   1.085       .  S
C51          C52   1.400       .  A
C52         C703   1.440       .  S
C52          C53   1.405       .  A
C53         C710   1.447       .  S
C53          C54   1.399       .  A
C54          H55   1.085       .  S
C57         C702   1.449       .  S
C57          C58   1.406       .  A
C57          C62   1.404       .  A
C58         C734   1.450       .  S
C58          C59   1.402       .  A
C59          H64   1.085       .  S
C59          C60   1.406       .  A
C60         C694   1.452       .  S
C60          C61   1.417       .  A
C61         C698   1.454       .  S
C61          C62   1.408       .  A
C62          H63   1.085       .  S
O65         Mg67   2.151       .  S
O65         Mg73   2.158       .  S
O65         C100   1.235       .  S
C66          O79   1.235       .  S
C66         O103   1.270       .  A
C66         H105   1.081       .  S
Mg67         O96   2.168       .  S
Mg67        O111   2.317   1_565  S
Mg67        O107   2.258       .  S
Mg67         O78   2.302       .  S
O68        Mg110   2.164       .  S
O68         Mg93   2.160       .  S
O68          C89   1.235       .  S
O69         C100   1.270       .  A
O69         Mg93   2.299       .  S
C70          O72   1.275       .  A
C70          O84   1.275       .  A
C70         C690   1.451   1_455  S
O71          C99   1.271       .  A
O71         Mg73   2.308       .  S
O72        Mg104   2.300       .  S
Mg73         O79   2.147       .  S
Mg73         O87   2.275   1_565  S
Mg73         O75   2.314       .  S
C74         O112   1.272   1_655  A
C74          O80   1.274   1_655  A
C74         C675   1.439       .  S
O75          C82   1.275       .  A
H76          C89   1.081       .  S
C77          O91   1.234       .  S
C77          O92   1.269       .  A
C77         H102   1.081       .  S
O78         C101   1.270       .  A
O79         Mg93   2.162       .  S
O80        Mg110   2.305       .  S
C81          O94   1.271       .  A
C81          O86   1.274       .  A
C81         C679   1.438       .  S
C82         O109   1.273       .  A
C82         C683   1.444       .  S
Mg83         O90   2.156       .  S
Mg83         O91   2.162       .  S
Mg83         O84   2.319       .  S
Mg83         O85   2.301       .  S
Mg83        O112   2.275       .  S
O85          C89   1.270       .  A
O86         Mg93   2.305       .  S
O87         C106   1.271       .  A
O88         C108   1.274       .  A
O88        Mg104   2.306       .  S
O90        Mg104   2.164       .  S
O90         C101   1.236       .  S
O91        Mg110   2.156       .  S
O92        Mg104   2.299       .  S
Mg93        O109   2.283       .  S
O94        Mg110   2.272       .  S
H95         C100   1.081       .  S
O96        Mg104   2.176       .  S
O96          C99   1.236       .  S
H97          C99   1.081       .  S
H98         C101   1.081       .  S
O103       Mg110   2.296       .  S
C106        O111   1.274       .  A
C106        C671   1.443       .  S
O107        C108   1.269       .  A
C108        C711   1.435   1_565  S
O113       Mg115   2.142       .  S
O113       Mg121   2.157       .  S
O113        C148   1.236       .  S
C114        O127   1.236       .  S
C114        O151   1.270       .  A
C114        H153   1.081       .  S
Mg115       O144   2.164       .  S
Mg115       O159   2.310       .  S
Mg115       O155   2.263       .  S
Mg115       O126   2.300       .  S
O116       Mg158   2.157       .  S
O116       Mg141   2.139       .  S
O116        C137   1.234       .  S
O117        C148   1.270       .  A
O117       Mg141   2.300       .  S
C118        O120   1.270       .  A
C118        O132   1.273       .  A
C118        C699   1.438   1_565  S
O119        C147   1.269       .  A
O119       Mg121   2.297       .  S
O120       Mg152   2.265       .  S
Mg121       O127   2.156       .  S
Mg121       O135   2.279       .  S
Mg121       O123   2.284       .  S
C122        O160   1.272       .  A
C122        O128   1.275       .  A
C122        C654   1.439       .  S
O123        C130   1.271       .  A
H124        C137   1.081       .  S
C125        O139   1.235       .  S
C125        O140   1.269       .  A
C125        H150   1.081   1_565  S
O126        C149   1.270       .  A
O127       Mg141   2.161       .  S
O128       Mg158   2.311   1_545  S
C129        O142   1.271       .  A
C129        O134   1.273       .  A
C129        C659   1.437       .  S
C130        O157   1.268       .  A
C130        C663   1.426       .  S
Mg131       O138   2.155       .  S
Mg131       O139   2.163       .  S
Mg131       O132   2.303       .  S
Mg131       O133   2.293       .  S
Mg131       O160   2.271   1_565  S
O133        C137   1.268       .  A
O134       Mg141   2.301       .  S
O135        C154   1.271       .  A
O136        C156   1.272       .  A
O136       Mg152   2.293       .  S
O138       Mg152   2.161       .  S
O138        C149   1.235       .  S
O139       Mg158   2.145       .  S
O140       Mg152   2.296       .  S
Mg141       O157   2.250       .  S
O142       Mg158   2.272       .  S
H143        C148   1.081       .  S
O144       Mg152   2.152       .  S
O144        C147   1.235       .  S
H145        C147   1.081       .  S
H146        C149   1.081       .  S
O151       Mg158   2.302       .  S
C154        O159   1.274       .  A
C154        C658   1.442       .  S
O155        C156   1.270       .  A
C156        C667   1.434       .  S
C161        C670   1.444       .  S
C161        C162   1.410       .  A
C161        C166   1.397       .  A
C162        C687   1.460       .  S
C162        C163   1.414       .  A
C163        H168   1.084       .  S
C163        C164   1.415       .  A
C164        C646   1.461       .  S
C164        C165   1.412       .  A
C165        C647   1.445       .  S
C165        C166   1.398       .  A
C166        H167   1.086       .  S
O169       Mg171   2.161   1_554  S
O169       Mg177   2.165   1_545  S
O169        C204   1.235       .  S
C170        O183   1.235       .  S
C170        O207   1.269       .  A
C170        H209   1.081       .  S
Mg171       O200   2.160   1_545  S
Mg171       O215   2.306   1_545  S
Mg171       O211   2.285   1_545  S
Mg171       O182   2.301       .  S
O172       Mg214   2.160   1_545  S
O172       Mg197   2.148       .  S
O172        C193   1.235       .  S
O173        C204   1.270       .  A
O173       Mg197   2.303       .  S
C174        O176   1.270       .  A
C174        O188   1.273       .  A
C174        C639   1.436       .  S
O175        C203   1.269   1_554  A
O175       Mg177   2.299       .  S
O176       Mg208   2.262       .  S
Mg177       O183   2.162       .  S
Mg177       O191   2.273       .  S
Mg177       O179   2.302   1_565  S
C178        O216   1.271       .  A
C178        O184   1.274   1_556  A
C178        C627   1.440       .  S
O179        C186   1.273       .  A
H180        C193   1.081       .  S
C181        O195   1.235       .  S
C181        O196   1.270       .  A
C181        H206   1.081   1_556  S
O182        C205   1.269       .  A
O183       Mg197   2.165   1_565  S
O184       Mg214   2.306   1_545  S
C185        O198   1.273       .  A
C185        O190   1.275       .  A
C185        C695   1.446       .  S
C186        O213   1.270       .  A
C186        C707   1.436       .  S
Mg187       O194   2.162       .  S
Mg187       O195   2.165   1_545  S
Mg187       O188   2.302   1_545  S
Mg187       O189   2.299       .  S
Mg187       O216   2.273       .  S
O189        C193   1.269   1_556  A
O190       Mg197   2.317       .  S
O191        C210   1.271       .  A
O192        C212   1.275       .  A
O192       Mg208   2.317       .  S
O194       Mg208   2.165   1_545  S
O194        C205   1.235       .  S
O195       Mg214   2.161   1_556  S
O196       Mg208   2.303       .  S
Mg197       O213   2.262       .  S
O198       Mg214   2.285   1_545  S
H199        C204   1.081   1_556  S
O200       Mg208   2.148       .  S
O200        C203   1.235       .  S
H201        C203   1.081       .  S
H202        C205   1.081       .  S
O207       Mg214   2.301       .  S
C210        O215   1.274   1_554  A
C210        C631   1.440       .  S
O211        C212   1.273       .  A
C212        C635   1.446       .  S
O217       Mg219   2.142   1_556  S
O217       Mg225   2.163       .  S
O217        C252   1.236       .  S
C218        O231   1.236       .  S
C218        O255   1.270       .  A
C218        H257   1.081       .  S
Mg219       O248   2.154       .  S
Mg219       O263   2.303       .  S
Mg219       O259   2.267       .  S
Mg219       O230   2.302       .  S
O220       Mg262   2.154       .  S
O220       Mg245   2.137       .  S
O220        C241   1.234       .  S
O221        C252   1.270       .  A
O221       Mg245   2.295       .  S
C222        O224   1.268       .  A
C222        O236   1.272       .  A
C222        C706   1.429       .  S
O223        C251   1.268   1_556  A
O223       Mg225   2.294       .  S
O224       Mg256   2.246       .  S
Mg225       O231   2.155       .  S
Mg225       O239   2.274       .  S
Mg225       O227   2.294       .  S
C226        O264   1.272       .  A
C226        O232   1.273   1_554  A
C226        C614   1.438       .  S
O227        C234   1.272       .  A
H228        C241   1.081       .  S
C229        O243   1.236       .  S
C229        O244   1.269       .  A
C229        H254   1.081   1_554  S
O230        C253   1.270       .  A
O231       Mg245   2.160       .  S
O232       Mg262   2.303       .  S
C233        O246   1.270       .  A
C233        O238   1.272       .  A
C233        C626   1.435       .  S
C234        O261   1.268       .  A
C234        C619   1.429       .  S
Mg235       O242   2.155       .  S
Mg235       O243   2.163       .  S
Mg235       O236   2.294       .  S
Mg235       O237   2.294       .  S
Mg235       O264   2.274       .  S
O237        C241   1.268   1_554  A
O238       Mg245   2.296       .  S
O239        C258   1.272       .  A
O240        C260   1.272       .  A
O240       Mg256   2.296       .  S
O242       Mg256   2.160       .  S
O242        C253   1.236       .  S
O243       Mg262   2.142   1_554  S
O244       Mg256   2.295       .  S
Mg245       O261   2.246       .  S
O246       Mg262   2.267       .  S
H247        C252   1.081   1_554  S
O248       Mg256   2.137       .  S
O248        C251   1.234       .  S
H249        C251   1.081       .  S
H250        C253   1.081       .  S
O255       Mg262   2.302       .  S
C258        O263   1.273   1_556  A
C258        C615   1.438       .  S
O259        C260   1.270       .  A
C260        C650   1.435       .  S
O265       Mg267   2.168   1_556  S
O265       Mg273   2.164   1_455  S
O265        C300   1.235       .  S
C266        O279   1.235       .  S
C266        O303   1.270       .  A
C266        H305   1.081       .  S
Mg267       O296   2.167   1_455  S
Mg267       O311   2.307   1_455  S
Mg267       O307   2.275   1_455  S
Mg267       O278   2.299       .  S
O268       Mg310   2.167   1_455  S
O268       Mg293   2.174       .  S
O268        C289   1.236       .  S
O269        C300   1.270       .  A
O269       Mg293   2.303       .  S
C270        O272   1.275       .  A
C270        O284   1.276       .  A
C270        C643   1.453       .  S
O271        C299   1.272   1_556  A
O271       Mg273   2.308       .  S
O272       Mg304   2.303       .  S
Mg273       O279   2.156       .  S
Mg273       O287   2.276       .  S
Mg273       O275   2.326   1_655  S
C274        O312   1.271       .  A
C274        O280   1.273   1_554  A
C274        C602   1.441       .  S
O275        C282   1.276       .  A
H276        C289   1.081       .  S
C277        O291   1.235       .  S
C277        O292   1.270       .  A
C277        H302   1.081   1_554  S
O278        C301   1.270       .  A
O279       Mg293   2.165   1_655  S
O280       Mg310   2.307   1_455  S
C281        O294   1.271       .  A
C281        O286   1.276       .  A
C281        C603   1.445       .  S
C282        O309   1.275       .  A
C282        C607   1.453       .  S
Mg283       O290   2.156       .  S
Mg283       O291   2.164   1_455  S
Mg283       O284   2.326   1_455  S
Mg283       O285   2.308       .  S
Mg283       O312   2.276       .  S
O285        C289   1.272   1_554  A
O286       Mg293   2.324       .  S
O287        C306   1.271       .  A
O288        C308   1.276       .  A
O288       Mg304   2.324       .  S
O290       Mg304   2.165   1_455  S
O290        C301   1.235       .  S
O291       Mg310   2.168   1_554  S
O292       Mg304   2.303       .  S
Mg293       O309   2.303       .  S
O294       Mg310   2.275   1_455  S
H295        C300   1.081   1_554  S
O296       Mg304   2.174       .  S
O296        C299   1.236       .  S
H297        C299   1.081       .  S
H298        C301   1.081       .  S
O303       Mg310   2.299       .  S
C306        O311   1.273   1_556  A
C306        C595   1.441       .  S
O307        C308   1.271       .  A
C308        C691   1.445       .  S
O313       Mg315   2.145       .  S
O313       Mg321   2.163       .  S
O313        C348   1.235       .  S
C314        O327   1.235       .  S
C314        O351   1.270       .  A
C314        H353   1.081       .  S
Mg315       O344   2.157       .  S
Mg315       O359   2.311   1_545  S
Mg315       O355   2.272       .  S
Mg315       O326   2.302       .  S
O316       Mg358   2.164       .  S
O316       Mg341   2.152       .  S
O316        C337   1.235       .  S
O317        C348   1.269       .  A
O317       Mg341   2.296       .  S
C318        O320   1.268       .  A
C318        O332   1.271       .  A
C318        C594   1.426       .  S
O319        C347   1.268       .  A
O319       Mg321   2.293       .  S
O320       Mg352   2.250       .  S
Mg321       O327   2.155       .  S
Mg321       O335   2.271   1_545  S
Mg321       O323   2.303       .  S
C322        O360   1.271       .  A
C322        O328   1.274       .  A
C322        C574   1.442       .  S
O323        C330   1.273       .  A
H324        C337   1.081       .  S
C325        O339   1.236       .  S
C325        O340   1.270       .  A
C325        H350   1.081       .  S
O326        C349   1.270       .  A
O327       Mg341   2.161       .  S
O328       Mg358   2.310       .  S
C329        O342   1.270       .  A
C329        O334   1.272       .  A
C329        C586   1.434       .  S
C330        O357   1.270       .  A
C330        C579   1.438   1_545  S
Mg331       O338   2.156       .  S
Mg331       O339   2.157       .  S
Mg331       O332   2.284       .  S
Mg331       O333   2.297       .  S
Mg331       O360   2.279       .  S
O333        C337   1.269       .  A
O334       Mg341   2.293       .  S
O335        C354   1.272       .  A
O336        C356   1.273       .  A
O336       Mg352   2.301       .  S
O338       Mg352   2.161       .  S
O338        C349   1.236       .  S
O339       Mg358   2.142       .  S
O340       Mg352   2.300       .  S
Mg341       O357   2.265       .  S
O342       Mg358   2.263       .  S
H343        C348   1.081   1_565  S
O344       Mg352   2.139       .  S
O344        C347   1.234       .  S
H345        C347   1.081       .  S
H346        C349   1.081       .  S
O351       Mg358   2.300       .  S
C354        O359   1.275       .  A
C354        C578   1.439       .  S
O355        C356   1.271       .  A
C356        C587   1.437       .  S
C361        C610   1.461       .  S
C361        C362   1.412       .  A
C361        C366   1.415       .  A
C362        C623   1.445       .  S
C362        C363   1.398       .  A
C363        H368   1.086       .  S
C363        C364   1.397       .  A
C364        C583   1.444       .  S
C364        C365   1.410       .  A
C365        C567   1.460       .  S
C365        C366   1.414       .  A
C366        H367   1.084       .  S
C369        C606   1.452       .  S
C369        C370   1.417       .  A
C369        C374   1.406       .  A
C370        C638   1.454       .  S
C370        C371   1.408       .  A
C371        H376   1.085       .  S
C371        C372   1.404       .  A
C372        C582   1.449       .  S
C372        C373   1.406       .  A
C373        C566   1.450       .  S
C373        C374   1.402       .  A
C374        H375   1.085       .  S
O377       Mg379   2.156       .  S
O377       Mg385   2.162       .  S
O377        C412   1.234       .  S
C378        O391   1.236       .  S
C378        O415   1.270       .  A
C378        H417   1.081       .  S
Mg379       O408   2.164       .  S
Mg379       O423   2.305       .  S
Mg379       O419   2.272       .  S
Mg379       O390   2.296       .  S
O380       Mg422   2.168       .  S
O380       Mg405   2.176       .  S
O380        C401   1.236       .  S
O381        C412   1.269       .  A
O381       Mg405   2.299       .  S
C382        O384   1.273       .  A
C382        O396   1.275       .  A
C382        C558   1.444       .  S
O383        C411   1.270       .  A
O383       Mg385   2.301       .  S
O384       Mg416   2.283       .  S
Mg385       O391   2.156       .  S
Mg385       O399   2.275       .  S
Mg385       O387   2.319       .  S
C386        O424   1.271       .  A
C386        O392   1.274       .  A
C386        C546   1.443       .  S
O387        C394   1.275       .  A
H388        C401   1.081       .  S
C389        O403   1.235       .  S
C389        O404   1.270       .  A
C389        H414   1.081       .  S
O390        C413   1.270       .  A
O391       Mg405   2.164       .  S
O392       Mg422   2.317   1_565  S
C393        O406   1.269       .  A
C393        O398   1.274       .  A
C393        C554   1.435   1_545  S
C394        O421   1.275       .  A
C394        C570   1.451   1_655  S
Mg395       O402   2.147       .  S
Mg395       O403   2.158       .  S
Mg395       O396   2.314       .  S
Mg395       O397   2.308       .  S
Mg395       O424   2.275   1_545  S
O397        C401   1.271       .  A
O398       Mg405   2.306       .  S
O399        C418   1.272   1_655  A
O400        C420   1.274       .  A
O400       Mg416   2.305       .  S
O402       Mg416   2.162       .  S
O402        C413   1.235       .  S
O403       Mg422   2.151       .  S
O404       Mg416   2.299       .  S
Mg405       O421   2.300       .  S
O406       Mg422   2.258       .  S
H407        C412   1.081       .  S
O408       Mg416   2.160       .  S
O408        C411   1.235       .  S
H409        C411   1.081       .  S
H410        C413   1.081       .  S
O415       Mg422   2.302       .  S
C418        O423   1.274   1_455  A
C418        C550   1.439       .  S
O419        C420   1.271       .  A
C420        C559   1.438       .  S
O425       Mg427   2.156       .  S
O425       Mg433   2.164       .  S
O425        C460   1.236       .  S
C426        O439   1.235       .  S
C426        O463   1.269       .  A
C426        H465   1.081       .  S
Mg427       O456   2.161       .  S
Mg427       O471   2.312       .  S
Mg427       O467   2.275       .  S
Mg427       O438   2.304       .  S
O428       Mg470   2.165       .  S
O428       Mg453   2.155       .  S
O428        C449   1.235       .  S
O429        C460   1.270       .  A
O429       Mg453   2.302       .  S
C430        O432   1.271       .  A
C430        O444   1.273       .  A
C430        C563   1.439       .  S
O431        C459   1.269       .  A
O431       Mg433   2.298       .  S
O432       Mg464   2.274       .  S
Mg433       O439   2.157       .  S
Mg433       O447   2.278       .  S
Mg433       O435   2.300       .  S
C434        O472   1.272       .  A
C434        O440   1.274       .  A
C434        C523   1.443       .  S
O435        C442   1.273       .  A
H436        C449   1.081       .  S
C437        O451   1.235       .  S
C437        O452   1.269       .  A
C437        H462   1.081       .  S
O438        C461   1.270       .  A
O439       Mg453   2.161       .  S
O440       Mg470   2.307   1_455  S
C441        O454   1.271       .  A
C441        O446   1.273       .  A
C441        C539   1.440       .  S
C442        O469   1.271       .  A
C442        C535   1.437       .  S
Mg443       O450   2.163       .  S
Mg443       O451   2.162       .  S
Mg443       O444   2.302       .  S
Mg443       O445   2.300       .  S
Mg443       O472   2.283   1_655  S
O445        C449   1.270       .  A
O446       Mg453   2.305       .  S
O447        C466   1.272       .  A
O448        C468   1.274       .  A
O448       Mg464   2.307       .  S
O450       Mg464   2.166       .  S
O450        C461   1.236       .  S
O451       Mg470   2.153       .  S
O452       Mg464   2.299       .  S
Mg453       O469   2.270       .  S
O454       Mg470   2.276       .  S
H455        C460   1.081       .  S
O456       Mg464   2.155       .  S
O456        C459   1.235       .  S
H457        C459   1.081       .  S
H458        C461   1.081       .  S
O463       Mg470   2.299       .  S
C466        O471   1.274       .  A
C466        C527   1.442       .  S
O467        C468   1.271       .  A
C468        C531   1.440       .  S
C473        C622   1.440       .  S
C473        C474   1.405       .  A
C473        C478   1.400       .  A
C474        C642   1.447       .  S
C474        C475   1.399       .  A
C475        H480   1.085       .  S
C475        C476   1.404       .  A
C476        C551   1.444       .  S
C476        C477   1.414       .  A
C477        C534   1.449       .  S
C477        C478   1.402       .  A
C478        H479   1.085       .  S
C481        C682   1.447       .  S
C481        C482   1.412       .  A
C481        C486   1.403       .  A
C482        C723   1.449       .  S
C482        C483   1.402   1_455  A
C483        H488   1.085       .  S
C483        C484   1.403       .  A
C484        C562   1.447       .  S
C484        C485   1.412       .  A
C485        C542   1.449       .  S
C485        C486   1.402   1_655  A
C486        H487   1.085       .  S
C489        C666   1.438       .  S
C489        C490   1.408       .  A
C489        C494   1.402       .  A
C490        C727   1.449       .  S
C490        C491   1.400       .  A
C491        H496   1.084       .  S
C491        C492   1.402       .  A
C492        C591   1.438       .  S
C492        C493   1.408       .  A
C493        C538   1.449       .  S
C493        C494   1.400       .  A
C494        H495   1.084       .  S
C497        C662   1.447       .  S
C497        C498   1.411       .  A
C497        C502   1.405   1_565  A
C498        C686   1.453       .  S
C498        C499   1.404       .  A
C499        H504   1.085       .  S
C499        C500   1.405   1_565  A
C500        C590   1.447       .  S
C500        C501   1.411       .  A
C501        C555   1.453       .  S
C501        C502   1.404       .  A
C502        H503   1.085       .  S
C505        C599   1.459       .  S
C505        C506   1.413   1_565  A
C505        C510   1.414   1_454  A
C506        C634   1.456       .  S
C506        C507   1.416       .  A
C507        C611   1.453       .  S
C507        C508   1.414   1_454  A
C508        C598   1.459       .  S
C508        C509   1.413   1_545  A
C509        C630   1.456       .  S
C509        C510   1.416       .  A
C510        C618   1.453       .  S
C511        C722   1.459       .  S
C511        C512   1.416       .  A
C511        C516   1.414       .  A
C512        C651   1.454       .  S
C512        C513   1.416       .  A
C513        C674   1.461       .  S
C513        C514   1.415       .  A
C514        C718   1.457       .  S
C514        C515   1.417       .  A
C515        C655   1.457       .  S
C515        C516   1.415       .  A
C516        C678   1.458       .  S
C517        C526   1.459       .  S
C517        C518   1.416       .  A
C517        C522   1.414       .  A
C518        C575   1.454       .  S
C518        C519   1.416       .  A
C519        C543   1.461       .  S
C519        C520   1.415       .  A
C520        C530   1.457       .  S
C520        C521   1.417       .  A
C521        C571   1.457       .  S
C521        C522   1.415       .  A
C522        C547   1.457       .  S
C523        C524   1.211       .  T
C524        C525   1.420       .  S
C525        C526   1.211       .  T
C527        C528   1.210       .  T
C528        C529   1.419       .  S
C529        C530   1.210       .  T
C531        C532   1.209       .  T
C532        C533   1.418       .  S
C533        C534   1.209       .  T
C535        C536   1.207       .  T
C536        C537   1.415       .  S
C537        C538   1.208       .  T
C539        C540   1.209       .  T
C540        C541   1.417       .  S
C541        C542   1.209       .  T
C543        C544   1.211       .  T
C544        C545   1.420       .  S
C545        C546   1.211       .  T
C547        C548   1.209       .  T
C548        C549   1.417       .  S
C549        C550   1.209       .  T
C551        C552   1.206       .  T
C552        C553   1.413       .  S
C553        C554   1.206       .  T
C555        C556   1.211       .  T
C556        C557   1.420       .  S
C557        C558   1.211       .  T
C559        C560   1.208       .  T
C560        C561   1.415       .  S
C561        C562   1.208       .  T
C563        C564   1.208   1_655  T
C564        C565   1.416       .  S
C565        C566   1.208       .  T
C567        C568   1.215       .  T
C568        C569   1.428       .  S
C569        C570   1.215       .  T
C571        C572   1.210       .  T
C572        C573   1.419       .  S
C573        C574   1.210       .  T
C575        C576   1.208       .  T
C576        C577   1.416       .  S
C577        C578   1.208       .  T
C579        C580   1.208       .  T
C580        C581   1.415       .  S
C581        C582   1.208       .  T
C583        C584   1.205       .  T
C584        C585   1.411       .  S
C585        C586   1.205       .  T
C587        C588   1.207       .  T
C588        C589   1.414       .  S
C589        C590   1.207       .  T
C591        C592   1.201       .  T
C592        C593   1.404       .  S
C593        C594   1.201       .  T
C595        C596   1.210       .  T
C596        C597   1.419       .  S
C597        C598   1.210       .  T
C599        C600   1.210       .  T
C600        C601   1.419       .  S
C601        C602   1.210       .  T
C603        C604   1.212       .  T
C604        C605   1.422       .  S
C605        C606   1.212       .  T
C607        C608   1.216       .  T
C608        C609   1.429       .  S
C609        C610   1.216       .  T
C611        C612   1.208       .  T
C612        C613   1.415       .  S
C613        C614   1.208       .  T
C615        C616   1.208       .  T
C616        C617   1.415       .  S
C617        C618   1.208       .  T
C619        C620   1.202       .  T
C620        C621   1.406       .  S
C621        C622   1.202       .  T
C623        C624   1.206       .  T
C624        C625   1.413       .  S
C625        C626   1.206       .  T
C627        C628   1.209       .  T
C628        C629   1.417   1_545  S
C629        C630   1.209       .  T
C631        C632   1.209       .  T
C632        C633   1.417   1_565  S
C633        C634   1.209       .  T
C635        C636   1.213       .  T
C636        C637   1.423       .  S
C637        C638   1.213       .  T
C639        C640   1.206       .  T
C640        C641   1.413       .  S
C641        C642   1.206       .  T
C643        C644   1.216       .  T
C644        C645   1.429       .  S
C645        C646   1.216       .  T
C647        C648   1.206       .  T
C648        C649   1.413       .  S
C649        C650   1.206       .  T
C651        C652   1.208       .  T
C652        C653   1.416       .  S
C653        C654   1.208       .  T
C655        C656   1.210       .  T
C656        C657   1.419       .  S
C657        C658   1.210       .  T
C659        C660   1.207       .  T
C660        C661   1.414       .  S
C661        C662   1.207       .  T
C663        C664   1.201       .  T
C664        C665   1.404       .  S
C665        C666   1.201       .  T
C667        C668   1.205       .  T
C668        C669   1.411       .  S
C669        C670   1.205       .  T
C671        C672   1.211       .  T
C672        C673   1.420       .  S
C673        C674   1.211       .  T
C675        C676   1.209       .  T
C676        C677   1.417       .  S
C677        C678   1.209       .  T
C679        C680   1.208       .  T
C680        C681   1.415       .  S
C681        C682   1.208       .  T
C683        C684   1.211       .  T
C684        C685   1.420       .  S
C685        C686   1.211       .  T
C687        C688   1.215       .  T
C688        C689   1.428       .  S
C689        C690   1.215       .  T
C691        C692   1.212       .  T
C692        C693   1.422       .  S
C693        C694   1.212       .  T
C695        C696   1.213       .  T
C696        C697   1.423       .  S
C697        C698   1.213       .  T
C699        C700   1.208       .  T
C700        C701   1.415       .  S
C701        C702   1.208       .  T
C703        C704   1.202       .  T
C704        C705   1.406       .  S
C705        C706   1.202       .  T
C707        C708   1.206       .  T
C708        C709   1.413       .  S
C709        C710   1.206       .  T
C711        C712   1.206       .  T
C712        C713   1.413       .  S
C713        C714   1.206       .  T
C715        C716   1.210       .  T
C716        C717   1.419       .  S
C717        C718   1.210       .  T
C719        C720   1.211       .  T
C720        C721   1.420       .  S
C721        C722   1.211       .  T
C723        C724   1.209       .  T
C724        C725   1.417       .  S
C725        C726   1.209       .  T
C727        C728   1.208       .  T
C728        C729   1.415       .  S
C729        C730   1.207       .  T
C731        C732   1.208   1_455  T
C732        C733   1.416       .  S
C733        C734   1.208       .  T
C735        C736   1.209       .  T
C736        C737   1.418       .  S
C737        C738   1.209       .  T
