geometry optimzed in LAMMPS
_audit_creation_date              2020-11-30 
_audit_creation_method            'lammps2cif' 
_symmetry_space_group_name_H-M    'P1' 
_symmetry_Int_Tables_number       1 
_symmetry_cell_setting            triclinic 
loop_ 
_symmetry_equiv_pos_as_xyz 
  x,y,z 
_cell_length_a                    44.48273623 
_cell_length_b                    44.38048204422131 
_cell_length_c                    36.77938656837618 
_cell_angle_alpha                 89.98047925871421 
_cell_angle_beta                  89.88161495322879 
_cell_angle_gamma                 89.15138567328991 
loop_ 
_atom_site_label 
_atom_site_type_symbol 
_atom_site_fract_x 
_atom_site_fract_y 
_atom_site_fract_z 
_atom_site_charge 
C1          C  0.73994084  0.78237699  0.77405175     0.02800
C2          C  0.76219001  0.75916958  0.77157197     0.02800
C3          C  0.75752668  0.73464226  0.74800405    -0.17800
C4          C  0.73083580  0.73213802  0.72761117     0.02800
C5          C  0.70805910  0.75466309  0.73109579     0.02800
C6          C  0.71311528  0.77976355  0.75369670    -0.17800
H7          H  0.69597481  0.79729761  0.75558353     0.04800
H8          H  0.77484879  0.71733183  0.74551367     0.04800
C9          C  0.76892567  0.25474031  0.77687211     0.02800
C10         C  0.74798137  0.23106324  0.77476885     0.02800
C11         C  0.72249166  0.23434334  0.75225567    -0.17800
C12         C  0.71764873  0.26041245  0.73090921     0.02800
C13         C  0.73909843  0.28378766  0.73215417     0.02800
C14         C  0.76443733  0.28060720  0.75507080    -0.17800
H15         H  0.78066252  0.29855662  0.75618558     0.04800
H16         H  0.70658605  0.21612301  0.75076894     0.04800
C17         C  0.21743354  0.25587754  0.76430191     0.02800
C18         C  0.24075073  0.23375157  0.76453553     0.02800
C19         C  0.26640917  0.23787074  0.74268198    -0.17800
C20         C  0.26989308  0.26382465  0.72091454     0.02800
C21         C  0.24679002  0.28628239  0.72109308     0.02800
C22         C  0.22090005  0.28190533  0.74269038    -0.17800
H23         H  0.20312946  0.29887592  0.74243968     0.04800
H24         H  0.28378536  0.22049672  0.74246638     0.04800
C25         C  0.22253392  0.74902117  0.78405005     0.02800
C26         C  0.24394875  0.77181377  0.77955900     0.02800
C27         C  0.26843924  0.76669762  0.75598938    -0.17800
C28         C  0.27201204  0.73914937  0.73702726     0.02800
C29         C  0.25062039  0.71596905  0.74230727     0.02800
C30         C  0.22628439  0.72129659  0.76608772    -0.17800
H31         H  0.20976541  0.70390470  0.77020166     0.04800
H32         H  0.28459111  0.78444164  0.75201280     0.04800
C33         C  0.22178079  0.75761377  0.22153050     0.02800
C34         C  0.24130591  0.78263553  0.22328274     0.02800
C35         C  0.26692781  0.78099594  0.24602111    -0.17800
C36         C  0.27352653  0.75529850  0.26724046     0.02800
C37         C  0.25453072  0.73006701  0.26471407     0.02800
C38         C  0.22891781  0.73151039  0.24203371    -0.17800
H39         H  0.21434947  0.71220099  0.24046509     0.04800
H40         H  0.28185669  0.80003321  0.24740206     0.04800
C41         C  0.76573613  0.75400350  0.22418006     0.02800
C42         C  0.74332248  0.77682141  0.22480240     0.02800
C43         C  0.71799544  0.77329204  0.24736816    -0.17800
C44         C  0.71481408  0.74757021  0.26948886     0.02800
C45         C  0.73736995  0.72457771  0.26858475     0.02800
C46         C  0.76246267  0.72817084  0.24573991    -0.17800
H47         H  0.77943077  0.71043110  0.24419007     0.04800
H48         H  0.70074576  0.79079451  0.24793193     0.04800
C49         C  0.76926843  0.24709270  0.22949347     0.02800
C50         C  0.74695624  0.22446280  0.23146325     0.02800
C51         C  0.72014215  0.23007449  0.25090969    -0.17800
C52         C  0.71508839  0.25732649  0.26942551     0.02800
C53         C  0.73803233  0.27911483  0.26986267     0.02800
C54         C  0.76457676  0.27399235  0.24941765    -0.17800
H55         H  0.78152418  0.29125861  0.24873670     0.04800
H56         H  0.70288880  0.21307703  0.25141546     0.04800
Fe57       Fe  0.46492523  0.78373500  0.52236494     1.65800
Fe58       Fe  0.53837344  0.77343051  0.51097928     1.73200
Fe59       Fe  0.49266504  0.71521560  0.49991570     1.54400
O60         O  0.45559386  0.70950161  0.53563670    -0.81200
O61         O  0.54141168  0.76487441  0.45694828    -0.79500
O62         O  0.44851275  0.75496803  0.55964341    -0.83700
O63         O  0.43892426  0.76631286  0.48034720    -0.78500
O64         O  0.52166302  0.70533785  0.54435387    -0.80300
O65         O  0.52619215  0.81778723  0.50048273    -0.83000
C66         C  0.44147811  0.74565539  0.45622851     0.97700
C67         C  0.44206307  0.72754955  0.55742871     1.05200
O68         O  0.49798400  0.75764626  0.51019769    -1.12000
O69         O  0.53450982  0.78103685  0.56554565    -0.74500
O70         O  0.48878852  0.80250939  0.56536173    -0.78000
O71         O  0.46226126  0.72533083  0.45771965    -0.78600
C72         C  0.51335292  0.79539914  0.58145113     0.96600
O73         O  0.47799347  0.81579991  0.48668336    -0.76600
O74         O  0.55762420  0.73195494  0.52090493    -0.81800
C75         C  0.54180090  0.73825924  0.44419525     0.99200
C76         C  0.54829545  0.71541402  0.54613592     1.05200
O77         O  0.52840481  0.71643044  0.46044580    -0.77400
C78         C  0.50247926  0.82963299  0.48753916     1.03500
Fe79       Fe  0.71357129  0.04845466  0.99888929     1.65800
Fe80       Fe  0.70763425  0.97424243  0.00186044     1.73200
Fe81       Fe  0.77646188  0.00497338  0.00150361     1.54400
O82         O  0.78152454  0.04033807  0.96243959    -0.81200
O83         O  0.72566616  0.96144041  0.04991428    -0.79500
O84         O  0.73489890  0.05790263  0.95141043    -0.83700
O85         O  0.74632363  0.07001014  0.02768272    -0.78500
O86         O  0.77681698  0.97418012  0.95835359    -0.80300
O87         O  0.67339085  0.99587812  0.03026729    -0.83000
C88         C  0.76738471  0.06114066  0.04827231     0.97700
C89         C  0.76264004  0.05612442  0.94369791     1.05200
O90         O  0.73302393  0.00917919  0.00050570    -1.12000
O91         O  0.68917388  0.98631433  0.95346327    -0.74500
O92         O  0.67764154  0.03355984  0.96851871    -0.78000
O93         O  0.77945724  0.03506399  0.04523505    -0.78600
C94         C  0.67564291  0.01107784  0.94743047     0.96600
O95         O  0.69213274  0.03969714  0.04726232    -0.76600
O96         O  0.73756526  0.94671989  0.97427556    -0.81800
C97         C  0.75305382  0.95650003  0.05753116     0.99200
C98         C  0.76111036  0.95053081  0.95548400     1.05200
O99         O  0.77462598  0.96895116  0.03998875    -0.77400
C100        C  0.67457034  0.01785449  0.05217974     1.03500
Fe101      Fe  0.29510381  0.04360241  0.99200967     1.65800
Fe102      Fe  0.29328226  0.96728008  0.99517634     1.73200
Fe103      Fe  0.22696247  0.00796871  0.99496629     1.54400
O104        O  0.22563230  0.04349675  0.03364312    -0.81200
O105        O  0.26892193  0.95046251  0.95294529    -0.79500
O106        O  0.27191386  0.06222726  0.03474427    -0.83700
O107        O  0.26751475  0.06393869  0.95440879    -0.78500
O108        O  0.22405287  0.97773776  0.03896084    -0.80300
O109        O  0.32507696  0.97954715  0.95748111    -0.83000
C110        C  0.24199590  0.05953536  0.94043474     0.97700
C111        C  0.24533175  0.06107242  0.04700785     1.05200
O112        O  0.27156529  0.00630921  0.99387861    -1.12000
O113        O  0.31938499  0.97993576  0.03814750    -0.74500
O114        O  0.32606308  0.02888054  0.02983995    -0.78000
O115        O  0.22454136  0.03878976  0.95133182    -0.78600
C116        C  0.33110326  0.00460956  0.04709133     0.96600
O117        O  0.32091039  0.02886932  0.94892563    -0.76600
O118        O  0.26523550  0.94909859  0.03303246    -0.81800
C119        C  0.24181956  0.95300179  0.94284887     0.99200
C120        C  0.24084307  0.95575903  0.04900976     1.05200
O121        O  0.22331529  0.97217501  0.95683876    -0.77400
C122        C  0.33169615  0.00327204  0.94032709     1.03500
Fe123      Fe  0.46659786  0.22672972  0.47753994     1.65800
Fe124      Fe  0.53999820  0.23338547  0.48441897     1.73200
Fe125      Fe  0.49555666  0.29385842  0.49740416     1.54400
O126        O  0.45662783  0.29967899  0.46332779    -0.81200
O127        O  0.54587497  0.24244776  0.53792008    -0.79500
O128        O  0.45135289  0.25463639  0.43811679    -0.83700
O129        O  0.44098632  0.24750283  0.51766902    -0.78500
O130        O  0.52357819  0.30266933  0.45209107    -0.80300
O131        O  0.52641338  0.18980926  0.49724711    -0.83000
C132        C  0.44469295  0.26734091  0.54224069     0.97700
C133        C  0.44303881  0.28166586  0.44178338     1.05200
O134        O  0.50025630  0.25137366  0.48748451    -1.12000
O135        O  0.53339613  0.22619629  0.43003527    -0.74500
O136        O  0.48936765  0.20389751  0.43647277    -0.78000
O137        O  0.46669444  0.28554938  0.54122599    -0.78600
C138        C  0.51124366  0.21233306  0.41670399     0.96600
O139        O  0.47970369  0.19700268  0.51608477    -0.76600
O140        O  0.56001383  0.27354496  0.47262855    -0.81800
C141        C  0.54636280  0.26898918  0.55091654     0.99200
C142        C  0.55029763  0.29208125  0.44938680     1.05200
O143        O  0.53267768  0.29137996  0.53521167    -0.77400
C144        C  0.50348805  0.18133352  0.51490163     1.03500
C145        C  0.49937952  0.99893264  0.31246636     0.87000
C146        C  0.47100535  0.99903037  0.28872714    -0.53200
C147        C  0.47345490  0.01575624  0.25785427     0.09900
C148        C  0.50363321  0.03147397  0.25372212     0.20900
C149        C  0.52543756  0.98940401  0.28697830    -0.54000
C150        C  0.52744240  0.00656419  0.25645584     0.10000
C151        C  0.50494868  0.03273925  0.31964153    -0.53500
C152        C  0.50760175  0.04941748  0.28856249     0.10600
H153        H  0.45129158  0.98582050  0.29494714     0.15100
H154        H  0.50560667  0.04521533  0.22858220     0.00800
H155        H  0.54166388  0.97166853  0.29341720     0.15400
H156        H  0.50696730  0.04319596  0.34605597     0.15200
C157        C  0.50924825  0.00994418  0.68224655     0.87000
C158        C  0.48161999  0.00874005  0.70777210    -0.53200
C159        C  0.48668309  0.99338815  0.73964913     0.09900
C160        C  0.51883116  0.98025809  0.74241298     0.20900
C161        C  0.53352451  0.02361253  0.70661096    -0.54000
C162        C  0.53900238  0.00743853  0.73713099     0.10000
C163        C  0.51861445  0.97694807  0.67661769    -0.53500
C164        C  0.52399785  0.96153621  0.70807566     0.10600
H165        H  0.46066176  0.02077913  0.70292136     0.15100
H166        H  0.52371003  0.96729163  0.76751483     0.00800
H167        H  0.54608217  0.04367489  0.69990819     0.15400
H168        H  0.52060398  0.96671326  0.64988827     0.15200
Fe169      Fe  0.77766573  0.46646680  0.49735111     1.65800
Fe170      Fe  0.77698869  0.54027501  0.50927749     1.73200
Fe171      Fe  0.71205248  0.50401201  0.49840284     1.54400
O172        O  0.71232835  0.46733829  0.46022533    -0.81200
O173        O  0.75301659  0.54743433  0.55529554    -0.79500
O174        O  0.76074298  0.46006453  0.44713751    -0.83700
O175        O  0.74375822  0.44111333  0.52051573    -0.78500
O176        O  0.71345373  0.53347007  0.45460893    -0.80300
O177        O  0.80935440  0.51950404  0.54215699    -0.83000
C178        C  0.72348199  0.44834465  0.54340141     0.97700
C179        C  0.73331812  0.45599246  0.44006490     1.05200
O180        O  0.75549892  0.50375014  0.50110319    -1.12000
O181        O  0.80228939  0.53420340  0.46357956    -0.74500
O182        O  0.81504368  0.48627290  0.47340213    -0.78000
O183        O  0.71042572  0.47417221  0.54261767    -0.78600
C184        C  0.81880084  0.51139271  0.45750056     0.96600
O185        O  0.79469740  0.47212844  0.54791736    -0.76600
O186        O  0.74711211  0.56522042  0.47717664    -0.81800
C187        C  0.72586303  0.55570739  0.55460155     0.99200
C188        C  0.72735983  0.55836110  0.45361638     1.05200
O189        O  0.70687096  0.54220413  0.53428376    -0.77400
C190        C  0.81006647  0.49418756  0.55850293     1.03500
Fe191      Fe  0.95424212  0.69866087  0.98735856     1.65800
Fe192      Fe  0.03052225  0.69923915  0.99088761     1.73200
Fe193      Fe  0.99046566  0.76619049  0.99809569     1.54400
O194        O  0.95721095  0.77234389  0.95705923    -0.81200
O195        O  0.04652391  0.72091647  0.03591118    -0.79500
O196        O  0.93742312  0.72699881  0.94866515    -0.83700
O197        O  0.93335863  0.72191536  0.02831901    -0.78500
O198        O  0.02332362  0.77296656  0.95843258    -0.80300
O199        O  0.01643534  0.66525575  0.02434118    -0.83000
C200        C  0.93682425  0.74608212  0.04594497     0.97700
C201        C  0.93943978  0.75455034  0.94049574     1.05200
O202        O  0.99176675  0.72149521  0.99217203    -1.12000
O203        O  0.01973797  0.67453135  0.94555472    -0.74500
O204        O  0.96998301  0.67178823  0.94581285    -0.78000
O205        O  0.95746782  0.76472184  0.03861252    -0.78600
C206        C  0.99542689  0.66470687  0.93260193     0.96600
O207        O  0.96640728  0.66718116  0.02538308    -0.76600
O208        O  0.04967434  0.72975086  0.95705516    -0.81800
C209        C  0.04313964  0.74643835  0.05091290     0.99200
C210        C  0.04484367  0.75649292  0.94658909     1.05200
O211        O  0.02377305  0.76591642  0.03960136    -0.77400
C212        C  0.99128448  0.65572596  0.03514582     1.03500
Fe213      Fe  0.97593904  0.28818305  0.01311578     1.65800
Fe214      Fe  0.04790188  0.26907558  0.00618646     1.73200
Fe215      Fe  0.99650551  0.21580957  0.99790019     1.54400
O216        O  0.96045456  0.21602869  0.03660158    -0.81200
O217        O  0.05018325  0.26020851  0.95259921    -0.79500
O218        O  0.95432129  0.26441304  0.05210707    -0.83700
O219        O  0.94777531  0.27135187  0.97332694    -0.78500
O220        O  0.02595994  0.20482929  0.04207241    -0.80300
O221        O  0.03986972  0.31393675  0.99597184    -0.83000
C222        C  0.94665199  0.24831089  0.95270383     0.97700
C223        C  0.94723059  0.23703673  0.05491768     1.05200
O224        O  0.00588677  0.25754934  0.00509241    -1.12000
O225        O  0.04314314  0.27686877  0.06014925    -0.74500
O226        O  0.00195740  0.30613798  0.05497932    -0.78000
O227        O  0.96497444  0.22587928  0.95640065    -0.78600
C228        C  0.02320671  0.29422280  0.07388123     0.96600
O229        O  0.99465895  0.31374253  0.97303950    -0.76600
O230        O  0.06342203  0.22622498  0.01549621    -0.81800
C231        C  0.04656421  0.23414069  0.93927658     0.99200
C232        C  0.05352647  0.21216286  0.04237057     1.05200
O233        O  0.03120247  0.21354681  0.95584475    -0.77400
C234        C  0.02150450  0.32244320  0.97202593     1.03500
Fe235      Fe  0.21618378  0.48720892  0.49052005     1.65800
Fe236      Fe  0.23113992  0.55990894  0.48454472     1.73200
Fe237      Fe  0.28772481  0.50981824  0.49393372     1.54400
O238        O  0.28094307  0.47393161  0.53135576    -0.81200
O239        O  0.25423194  0.56314744  0.43758835    -0.79500
O240        O  0.23136961  0.47214308  0.53966263    -0.83700
O241        O  0.24365157  0.45654537  0.46349325    -0.78500
O242        O  0.28920959  0.53836794  0.53945799    -0.80300
O243        O  0.19395518  0.54917762  0.45390185    -0.83000
C244        C  0.26792726  0.45829449  0.44542081     0.97700
C245        C  0.25788660  0.46426411  0.54857039     1.05200
O246        O  0.24521121  0.51865667  0.48960164    -1.12000
O247        O  0.20690920  0.55722862  0.53166195    -0.74500
O248        O  0.18474661  0.51399345  0.51773688    -0.78000
O249        O  0.28642780  0.47974031  0.44987266    -0.78600
C250        C  0.18608647  0.53840158  0.53582600     0.96600
O251        O  0.20031765  0.50087560  0.44106372    -0.76600
O252        O  0.26680387  0.57695038  0.51311419    -0.81800
C253        C  0.28233733  0.56034494  0.43379789     0.99200
C254        C  0.27909370  0.56531625  0.54085438     1.05200
O255        O  0.29876634  0.54494291  0.45604984    -0.77400
C256        C  0.18942567  0.52662166  0.43358417     1.03500
C257        C  0.01626271  0.44064444  0.24264009     0.87000
C258        C  0.04136679  0.45913241  0.25983429    -0.53200
C259        C  0.03342564  0.48830409  0.26640851     0.09900
C260        C  0.00122618  0.49652595  0.25644449     0.20900
C261        C  0.98928362  0.44432795  0.26869617    -0.54000
C262        C  0.98207093  0.47355858  0.27666839     0.10000
C263        C  0.00635276  0.45875477  0.20884277    -0.53500
C264        C  0.99890563  0.48812152  0.21614122     0.10600
H265        H  0.06349187  0.44995510  0.26634477     0.15100
H266        H  0.99539013  0.52040402  0.26261953     0.00800
H267        H  0.97602284  0.42612641  0.27933557     0.15400
H268        H  0.00725410  0.44975680  0.18140929     0.15200
C269        C  0.02633421  0.43547401  0.75362725     0.87000
C270        C  0.99656598  0.43217557  0.73254336    -0.53200
C271        C  0.98735227  0.45826824  0.71587955     0.09900
C272        C  0.00822843  0.48504220  0.72191132     0.20900
C273        C  0.04850793  0.44758967  0.72569057    -0.54000
C274        C  0.03912787  0.47352797  0.70941114     0.10000
C275        C  0.01964837  0.46177081  0.77974459    -0.53500
C276        C  0.01083060  0.48787797  0.76326145     0.10600
H277        H  0.98336253  0.41192554  0.73101962     0.15100
H278        H  0.00097501  0.50616290  0.70811482     0.00800
H279        H  0.07027143  0.43709923  0.72023326     0.15400
H280        H  0.02246984  0.46001100  0.80901983     0.15200
C281        C  0.21618055  0.25451891  0.22576536     0.02800
C282        C  0.23994984  0.23288305  0.22721673     0.02800
C283        C  0.26442480  0.23760077  0.25085786    -0.17800
C284        C  0.26678304  0.26426754  0.27168913     0.02800
C285        C  0.24395373  0.28694146  0.26825325     0.02800
C286        C  0.21863141  0.28139086  0.24615695    -0.17800
H287        H  0.20077071  0.29821058  0.24466911     0.04800
H288        H  0.28180997  0.22033887  0.25291858     0.04800
C289        C  0.10867971  0.53871798  0.57355366    -0.01500
C290        C  0.11476313  0.53781654  0.61108991     0.07100
C291        C  0.14368986  0.54397865  0.62375095    -0.07500
C292        C  0.16740799  0.54724396  0.59924573     0.04500
C293        C  0.16186330  0.54459393  0.56170787    -0.14700
C294        C  0.13231065  0.54210891  0.54910355    -0.08000
C295        C  0.09405115  0.52266450  0.63596826     0.05500
C296        C  0.08916547  0.49194394  0.62992688    -0.09200
C297        C  0.07135182  0.47545577  0.65349149     0.00500
C298        C  0.05790039  0.48997909  0.68358353     0.00300
C299        C  0.06271667  0.52074282  0.68967208    -0.12700
C300        C  0.08113318  0.53710745  0.66633856     0.00800
C301        C  0.06652683  0.44401791  0.64547027     0.40100
C302        C  0.08679625  0.56835299  0.67425232     0.36700
C303        C  0.07893567  0.53315806  0.55960190     0.36500
C304        C  0.19744144  0.54912011  0.61354332     0.37200
N305        N  0.06274181  0.41883218  0.63904980    -0.43600
N306        N  0.09151606  0.59333821  0.68080534    -0.44000
N307        N  0.22130343  0.55029072  0.62577182    -0.41400
N308        N  0.05512758  0.52850664  0.54850321    -0.42800
H309        H  0.12804368  0.54043637  0.52013554     0.13300
H310        H  0.14832619  0.54298674  0.65268389     0.09800
H311        H  0.09968354  0.48074099  0.60685167     0.10900
H312        H  0.05269525  0.53176702  0.71316620     0.16700
C313        C  0.13205447  0.56124326  0.37008647    -0.01500
C314        C  0.12630111  0.53696345  0.34686297     0.07100
C315        C  0.14406383  0.51072724  0.34878108    -0.07500
C316        C  0.16586685  0.50726291  0.37556986     0.04500
C317        C  0.16982766  0.53047617  0.40146569    -0.14700
C318        C  0.15371059  0.55786853  0.39724914    -0.08000
C319        C  0.09924594  0.53567791  0.32422324     0.05500
C320        C  0.10300781  0.53168080  0.28672335    -0.09200
C321        C  0.08037224  0.51857410  0.26623216     0.00500
C322        C  0.05381954  0.50944061  0.28363003     0.00300
C323        C  0.04850492  0.51699679  0.31996596    -0.12700
C324        C  0.07115400  0.52997069  0.34056108     0.00800
C325        C  0.08533365  0.51368042  0.22789796     0.40100
C326        C  0.06631377  0.53372830  0.37915752     0.36700
C327        C  0.11539219  0.58929287  0.36711841     0.36500
C328        C  0.18298917  0.47931931  0.37597547     0.37200
N329        N  0.08935961  0.51039526  0.19705929    -0.43600
N330        N  0.06244243  0.53671785  0.41007893    -0.44000
N331        N  0.19656835  0.45686843  0.37611809    -0.41400
N332        N  0.10208691  0.61179710  0.36459097    -0.42800
H333        H  0.15710298  0.57635331  0.41599074     0.13300
H334        H  0.13972131  0.49216624  0.33039316     0.09800
H335        H  0.12454372  0.53634871  0.27419792     0.10900
H336        H  0.02774452  0.51028257  0.33301474     0.16700
C337        C  0.26807386  0.41983811  0.35386852    -0.01500
C338        C  0.26461763  0.38926375  0.36384946     0.07100
C339        C  0.26757713  0.38149462  0.40075058    -0.07500
C340        C  0.27153421  0.40360055  0.42755396     0.04500
C341        C  0.27313634  0.43432332  0.41778401    -0.14700
C342        C  0.27247602  0.44195434  0.38074615    -0.08000
C343        C  0.25707125  0.36515397  0.33674208     0.05500
C344        C  0.27636666  0.35946362  0.30715356    -0.09200
C345        C  0.27100645  0.33572387  0.28280354     0.00500
C346        C  0.24639428  0.31636274  0.28827076     0.00300
C347        C  0.22611560  0.32309318  0.31657372    -0.12700
C348        C  0.23120316  0.34716834  0.34061122     0.00800
C349        C  0.29137200  0.33134338  0.25261712     0.40100
C350        C  0.20951424  0.35301026  0.36910612     0.36700
C351        C  0.26484941  0.42944877  0.31658644     0.36500
C352        C  0.27296268  0.39434771  0.46518408     0.37200
N353        N  0.30767847  0.32788840  0.22837340    -0.43600
N354        N  0.19218274  0.35782800  0.39196418    -0.44000
N355        N  0.27413345  0.38696247  0.49533547    -0.41400
N356        N  0.26222589  0.43717742  0.28669500    -0.42800
H357        H  0.27313638  0.46547080  0.37297594     0.13300
H358        H  0.26568763  0.35811750  0.40881051     0.09800
H359        H  0.29609853  0.37320091  0.30348978     0.10900
H360        H  0.20700290  0.30863748  0.32094722     0.16700
C361        C  0.02062887  0.35425464  0.23874019    -0.01500
C362        C  0.03912303  0.35016864  0.20810373     0.07100
C363        C  0.05544374  0.37453405  0.19477261    -0.07500
C364        C  0.04973736  0.40358177  0.20741465     0.04500
C365        C  0.02711101  0.40867460  0.23402387    -0.14700
C366        C  0.01500651  0.38333432  0.25179170    -0.08000
C367        C  0.03413253  0.32532375  0.18241336     0.05500
C368        C  0.00512657  0.32363490  0.16775458    -0.09200
C369        C  0.00065505  0.31198940  0.13314792     0.00500
C370        C  0.02569978  0.30180568  0.11267084     0.00300
C371        C  0.05398784  0.29937805  0.12958535    -0.12700
C372        C  0.05831729  0.31095736  0.16440486     0.00800
C373        C  0.97030856  0.31211428  0.11916512     0.40100
C374        C  0.08812083  0.31020955  0.17989228     0.36700
C375        C  0.00526038  0.32919326  0.25509398     0.36500
C376        C  0.06592176  0.42772201  0.19024211     0.37200
N377        N  0.94587056  0.31243827  0.10841124    -0.43600
N378        N  0.11200399  0.30964009  0.19230830    -0.44000
N379        N  0.07904170  0.44667965  0.17595277    -0.41400
N380        N  0.99285048  0.30911140  0.26804554    -0.42800
H381        H  0.00036143  0.38559268  0.27502269     0.13300
H382        H  0.07014508  0.37150218  0.17143575     0.09800
H383        H  0.98628695  0.33438392  0.18163988     0.10900
H384        H  0.07318553  0.29021276  0.11485480     0.16700
C385        C  0.02994550  0.36119765  0.80438418    -0.01500
C386        C  0.04933105  0.36986231  0.83256424     0.07100
C387        C  0.06873536  0.39382858  0.82727943    -0.07500
C388        C  0.06440108  0.41312120  0.79788822     0.04500
C389        C  0.03938369  0.40881677  0.77447096    -0.14700
C390        C  0.02480384  0.38092563  0.77544881    -0.08000
C391        C  0.04362867  0.36028821  0.87010345     0.05500
C392        C  0.06642654  0.34608227  0.89013550    -0.09200
C393        C  0.06081693  0.33616026  0.92551536     0.00500
C394        C  0.03164667  0.34000435  0.94060878     0.00300
C395        C  0.00989782  0.35673007  0.92157193    -0.12700
C396        C  0.01579409  0.36729623  0.88679934     0.00800
C397        C  0.08497120  0.32096947  0.94465186     0.40100
C398        C  0.99289610  0.38529377  0.86880502     0.36700
C399        C  0.01269923  0.33395528  0.80702848     0.36500
C400        C  0.08335139  0.43926451  0.79555675     0.37200
N401        N  0.10448208  0.30897955  0.95991443    -0.43600
N402        N  0.97465006  0.39975046  0.85434354    -0.44000
N403        N  0.09844736  0.46022735  0.79365676    -0.41400
N404        N  0.99904123  0.31204419  0.80933022    -0.42800
H405        H  0.00790498  0.37520860  0.75571374     0.13300
H406        H  0.08476770  0.39957898  0.84827070     0.09800
H407        H  0.08830137  0.34212292  0.87779080     0.10900
H408        H  0.98781697  0.36064940  0.93340111     0.16700
C409        C  0.12711720  0.21170694  0.09328840    -0.01500
C410        C  0.11840729  0.22134554  0.12834619     0.07100
C411        C  0.08751390  0.22260672  0.13677792    -0.07500
C412        C  0.06550233  0.21646805  0.11020745     0.04500
C413        C  0.07425684  0.20876037  0.07430233    -0.14700
C414        C  0.10526204  0.20549250  0.06691633    -0.08000
C415        C  0.14133582  0.23125211  0.15566570     0.05500
C416        C  0.15740437  0.25788183  0.14949023    -0.09200
C417        C  0.18073833  0.26671400  0.17288744     0.00500
C418        C  0.18865292  0.24867587  0.20317340     0.00300
C419        C  0.17165743  0.22275836  0.21013471    -0.12700
C420        C  0.14847580  0.21386496  0.18666224     0.00800
C421        C  0.19713003  0.29362853  0.16431435     0.40100
C422        C  0.13342206  0.18591307  0.19383601     0.36700
C423        C  0.15848024  0.20889365  0.08338771     0.36500
C424        C  0.03425715  0.22083159  0.11971547     0.37200
N425        N  0.21035202  0.31518670  0.15753595    -0.43600
N426        N  0.12144690  0.16341610  0.19948188    -0.44000
N427        N  0.00923383  0.22448393  0.12744253    -0.41400
N428        N  0.18361274  0.20668227  0.07547925    -0.42800
H429        H  0.11254883  0.19971606  0.03959126     0.13300
H430        H  0.08053953  0.22980980  0.16371345     0.09800
H431        H  0.15207747  0.27151025  0.12582285     0.10900
H432        H  0.17722877  0.20880432  0.23343361     0.16700
C433        C  0.97176521  0.60714899  0.11502963    -0.01500
C434        C  0.98946103  0.58120755  0.10815349     0.07100
C435        C  0.00731002  0.57943251  0.07684419    -0.07500
C436        C  0.00824709  0.60360844  0.05261429     0.04500
C437        C  0.99085955  0.62982395  0.05974976    -0.14700
C438        C  0.97231134  0.63114895  0.09056541    -0.08000
C439        C  0.99196125  0.55702055  0.13522193     0.05500
C440        C  0.97494746  0.53091502  0.13119219    -0.09200
C441        C  0.97653158  0.50800361  0.15732309     0.00500
C442        C  0.99550728  0.51134697  0.18771741     0.00300
C443        C  0.01245424  0.53757570  0.19138748    -0.12700
C444        C  0.01092677  0.56027990  0.16540486     0.00800
C445        C  0.95763163  0.48207790  0.15317182     0.40100
C446        C  0.02910832  0.58670534  0.17012085     0.36700
C447        C  0.95364132  0.60986376  0.14751582     0.36500
C448        C  0.02659029  0.60073348  0.02028383     0.37200
N449        N  0.94242513  0.46132692  0.14986767    -0.43600
N450        N  0.04364360  0.60788996  0.17383463    -0.44000
N451        N  0.04120808  0.59850633  0.99432532    -0.41400
N452        N  0.93927667  0.61202596  0.17367696    -0.42800
H453        H  0.95886955  0.65125706  0.09598062     0.13300
H454        H  0.02099410  0.55942040  0.07183019     0.09800
H455        H  0.96019122  0.52868813  0.10793987     0.10900
H456        H  0.02726839  0.54029472  0.21445166     0.16700
C457        C  0.97412107  0.59866292  0.87397522    -0.01500
C458        C  0.99930903  0.59545575  0.85094947     0.07100
C459        C  0.02232924  0.61665932  0.85270568    -0.07500
C460        C  0.02137036  0.63998300  0.87827997     0.04500
C461        C  0.99654844  0.64271861  0.90225897    -0.14700
C462        C  0.97280149  0.62229520  0.89901316    -0.08000
C463        C  0.00313404  0.56887189  0.82694631     0.05500
C464        C  0.98188764  0.56336202  0.79966242    -0.09200
C465        C  0.98380681  0.53725893  0.77831423     0.00500
C466        C  0.00778593  0.51653433  0.78374769     0.00300
C467        C  0.02948321  0.52269182  0.81032721    -0.12700
C468        C  0.02712149  0.54824574  0.83218810     0.00800
C469        C  0.95997989  0.53168729  0.75271798     0.40100
C470        C  0.04878013  0.55194483  0.86100741     0.36700
C471        C  0.95023786  0.57695190  0.87405882     0.36500
C472        C  0.04636916  0.66034265  0.87942811     0.37200
N473        N  0.94068584  0.52756853  0.73233703    -0.43600
N474        N  0.06607373  0.55478984  0.88417174    -0.44000
N475        N  0.06659006  0.67642575  0.88039264    -0.41400
N476        N  0.93112529  0.55954079  0.87416612    -0.42800
H477        H  0.95369823  0.62382649  0.91732773     0.13300
H478        H  0.04159847  0.61436470  0.83473231     0.09800
H479        H  0.96333983  0.57915671  0.79569783     0.10900
H480        H  0.04823230  0.50717693  0.81449309     0.16700
C481        C  0.86201505  0.45312399  0.62264382    -0.01500
C482        C  0.87570840  0.47704653  0.64092333     0.07100
C483        C  0.86567911  0.50671285  0.63505058    -0.07500
C484        C  0.84317000  0.51299888  0.60958574     0.04500
C485        C  0.83074277  0.48915424  0.58932431    -0.14700
C486        C  0.83958695  0.45928820  0.59727309    -0.08000
C487        C  0.90370825  0.47200848  0.66119914     0.05500
C488        C  0.93058832  0.47889388  0.64354688    -0.09200
C489        C  0.95812551  0.47357054  0.66039568     0.00500
C490        C  0.95890623  0.46131251  0.69575448     0.00300
C491        C  0.93189687  0.45388560  0.71325618    -0.12700
C492        C  0.90425005  0.45919336  0.69616961     0.00800
C493        C  0.98503235  0.47996805  0.64003176     0.40100
C494        C  0.87679401  0.45189575  0.71498857     0.36700
C495        C  0.87215152  0.42230566  0.62747795     0.36500
C496        C  0.83359720  0.54398457  0.60473676     0.37200
N497        N  0.00605506  0.48525627  0.62274455    -0.43600
N498        N  0.85471038  0.44608806  0.72994676    -0.44000
N499        N  0.82589351  0.56880947  0.60092698    -0.41400
N500        N  0.88030865  0.39762486  0.63125838    -0.42800
H501        H  0.83015547  0.44064320  0.58227994     0.13300
H502        H  0.87634356  0.52504932  0.64936316     0.09800
H503        H  0.92998670  0.48811712  0.61621431     0.10900
H504        H  0.93240231  0.44472339  0.74059285     0.16700
C505        C  0.89680461  0.50839168  0.41909099    -0.01500
C506        C  0.89095345  0.50917181  0.38124902     0.07100
C507        C  0.86141103  0.51492436  0.36933891    -0.07500
C508        C  0.83798807  0.51885491  0.39426021     0.04500
C509        C  0.84345501  0.51392774  0.43143854    -0.14700
C510        C  0.87290478  0.50952949  0.44371864    -0.08000
C511        C  0.91458879  0.50109680  0.35414922     0.05500
C512        C  0.93251726  0.47535228  0.36064445    -0.09200
C513        C  0.95533388  0.46676625  0.33669671     0.00500
C514        C  0.95878101  0.48238612  0.30353228     0.00300
C515        C  0.94046285  0.50770138  0.29642858    -0.12700
C516        C  0.91896809  0.51758407  0.32169635     0.00800
C517        C  0.97599175  0.44320543  0.34819161     0.40100
C518        C  0.90241171  0.54505961  0.31390613     0.36700
C519        C  0.92700488  0.50646424  0.43339460     0.36500
C520        C  0.80845459  0.52688988  0.38092761     0.37200
N521        N  0.99269503  0.42452608  0.35751997    -0.43600
N522        N  0.88908730  0.56700838  0.30747713    -0.44000
N523        N  0.78491803  0.53352979  0.36998408    -0.41400
N524        N  0.95119554  0.50492496  0.44483889    -0.42800
H525        H  0.87719104  0.50702917  0.47260570     0.13300
H526        H  0.85631019  0.51545002  0.34055328     0.09800
H527        H  0.92905809  0.46203236  0.38497382     0.10900
H528        H  0.94304530  0.51999543  0.27115777     0.16700
C529        C  0.51660722  0.09863215  0.53295875    -0.01500
C530        C  0.50067654  0.09483806  0.56585072     0.07100
C531        C  0.48656468  0.11981730  0.58222495    -0.07500
C532        C  0.48745947  0.14813214  0.56623416     0.04500
C533        C  0.50360698  0.15210296  0.53353509    -0.14700
C534        C  0.51821485  0.12729067  0.51726760    -0.08000
C535        C  0.50147228  0.06644656  0.58683374     0.05500
C536        C  0.52951026  0.05465072  0.59691573    -0.09200
C537        C  0.53208452  0.03420846  0.62547070     0.00500
C538        C  0.50620938  0.02656102  0.64612832     0.00300
C539        C  0.47780486  0.03518202  0.63250516    -0.12700
C540        C  0.47530139  0.05485566  0.60298189     0.00800
C541        C  0.56208825  0.02386487  0.63455793     0.40100
C542        C  0.44569517  0.06394367  0.59071235     0.36700
C543        C  0.53099861  0.07352301  0.51458788     0.36500
C544        C  0.47217359  0.17276922  0.58462220     0.37200
N545        N  0.58640756  0.01653466  0.64183790    -0.43600
N546        N  0.42200143  0.07130187  0.58089398    -0.44000
N547        N  0.45981874  0.19243800  0.59928060    -0.41400
N548        N  0.54262431  0.05344085  0.49989324    -0.42800
H549        H  0.53018936  0.13013933  0.49180341     0.13300
H550        H  0.47528025  0.11733197  0.60821512     0.09800
H551        H  0.54977918  0.06317451  0.58438410     0.10900
H552        H  0.45738114  0.02718359  0.64488450     0.16700
C553        C  0.50289536  0.13241222  0.26805418    -0.01500
C554        C  0.52323774  0.14389136  0.29376212     0.07100
C555        C  0.54272676  0.12378793  0.31200914    -0.07500
C556        C  0.53907207  0.09279189  0.30921082     0.04500
C557        C  0.51545048  0.08154370  0.28796351    -0.14700
C558        C  0.49890837  0.10130158  0.26561844    -0.08000
C559        C  0.51769007  0.17330732  0.31166570     0.05500
C560        C  0.48919809  0.17725004  0.32752544    -0.09200
C561        C  0.48590268  0.19249509  0.36034883     0.00500
C562        C  0.51165208  0.20396238  0.37779357     0.00300
C563        C  0.53874210  0.20543245  0.35807183    -0.12700
C564        C  0.54174702  0.19051942  0.32474095     0.00800
C565        C  0.45619155  0.19392405  0.37635196     0.40100
C566        C  0.57047357  0.19037316  0.30639505     0.36700
C567        C  0.48420845  0.15220185  0.24627763     0.36500
C568        C  0.55923899  0.07318547  0.32931629     0.37200
N569        N  0.43236797  0.19492547  0.38905568    -0.43600
N570        N  0.59348286  0.19037812  0.29165390    -0.44000
N571        N  0.57539392  0.05751351  0.34545862    -0.41400
N572        N  0.46917391  0.16801738  0.22883304    -0.42800
H573        H  0.48159648  0.09261795  0.24791736     0.13300
H574        H  0.55878436  0.13215383  0.33157334     0.09800
H575        H  0.47013349  0.16498229  0.31716537     0.10900
H576        H  0.55822941  0.21611342  0.36979961     0.16700
C577        C  0.38928475  0.30794059  0.36748026    -0.01500
C578        C  0.36491924  0.28826139  0.37351963     0.07100
C579        C  0.36510197  0.27074388  0.40514298    -0.07500
C580        C  0.38899874  0.27146266  0.42962701     0.04500
C581        C  0.41447290  0.28941826  0.42260848    -0.14700
C582        C  0.41398159  0.30815765  0.39175829    -0.08000
C583        C  0.33972759  0.28368372  0.34690946     0.05500
C584        C  0.34622987  0.27421030  0.31118560    -0.09200
C585        C  0.32316555  0.26667068  0.28670282     0.00500
C586        C  0.29265557  0.26827245  0.29775737     0.00300
C587        C  0.28641322  0.27639665  0.33402806    -0.12700
C588        C  0.30926691  0.28482680  0.35804663     0.00800
C589        C  0.33148829  0.25778594  0.25027957     0.40100
C590        C  0.30074326  0.29516521  0.39390484     0.36700
C591        C  0.38945395  0.32791627  0.33655008     0.36500
C592        C  0.38723814  0.25178141  0.46081679     0.37200
N593        N  0.33820849  0.25045846  0.22114737    -0.43600
N594        N  0.29404171  0.30333465  0.42271972    -0.44000
N595        N  0.38479461  0.23560981  0.48528423    -0.41400
N596        N  0.38945068  0.34406380  0.31183847    -0.42800
H597        H  0.43340618  0.32172928  0.38560703     0.13300
H598        H  0.34685241  0.25531718  0.41013949     0.09800
H599        H  0.36948399  0.27224504  0.30250359     0.10900
H600        H  0.26331691  0.27694371  0.34345375     0.16700
C601        C  0.37189229  0.03605065  0.12823567    -0.01500
C602        C  0.38808219  0.01069807  0.14086530     0.07100
C603        C  0.38466466  0.98280603  0.12368171    -0.07500
C604        C  0.36605676  0.97998429  0.09336680     0.04500
C605        C  0.35071788  0.00570527  0.07951561    -0.14700
C606        C  0.35358571  0.03344090  0.09765592    -0.08000
C607        C  0.40994174  0.01298068  0.17077739     0.05500
C608        C  0.39968511  0.01911186  0.20612727    -0.09200
C609        C  0.41995743  0.02065036  0.23506756     0.00500
C610        C  0.45091503  0.01568706  0.22856664     0.00300
C611        C  0.46108658  0.01006099  0.19309181    -0.12700
C612        C  0.44093290  0.00877764  0.16423575     0.00800
C613        C  0.40861202  0.02829103  0.27075171     0.40100
C614        C  0.45262145  0.00354474  0.12807595     0.36700
C615        C  0.37420282  0.06506431  0.14570317     0.36500
C616        C  0.36389846  0.95058999  0.07681626     0.37200
N617        N  0.39955021  0.03446030  0.29935547    -0.43600
N618        N  0.46202656  0.99939695  0.09912029    -0.44000
N619        N  0.36215752  0.92693389  0.06382160    -0.41400
N620        N  0.37591845  0.08827834  0.15980804    -0.42800
H621        H  0.34138357  0.05322275  0.08805235     0.13300
H622        H  0.39697426  0.96324858  0.13377433     0.09800
H623        H  0.37584010  0.02264237  0.21103810     0.10900
H624        H  0.48485722  0.00619807  0.18792813     0.16700
C625        C  0.41048692  0.99125612  0.78603494    -0.01500
C626        C  0.41793001  0.99620551  0.82267140     0.07100
C627        C  0.44810030  0.99818158  0.83266687    -0.07500
C628        C  0.47102104  0.99610454  0.80671850     0.04500
C629        C  0.46376070  0.99243894  0.76939680    -0.14700
C630        C  0.43328975  0.98956244  0.75978823    -0.08000
C631        C  0.39476363  0.99871403  0.85142508     0.05500
C632        C  0.37908283  0.97291994  0.86149280    -0.09200
C633        C  0.35829936  0.97378679  0.89005472     0.00500
C634        C  0.35298487  0.00108198  0.90926584     0.00300
C635        C  0.36844526  0.02703880  0.89848348    -0.12700
C636        C  0.38927752  0.02601154  0.86997749     0.00800
C637        C  0.34255370  0.94637209  0.89832039     0.40100
C638        C  0.40468112  0.05325796  0.86013013     0.36700
C639        C  0.37959044  0.98846546  0.77475072     0.36500
C640        C  0.50130936  0.99812660  0.82019742     0.37200
N641        N  0.33004382  0.92432719  0.90483461    -0.43600
N642        N  0.41701231  0.07510795  0.85228967    -0.44000
N643        N  0.52508603  0.99906237  0.83279456    -0.41400
N644        N  0.35479381  0.98614770  0.76585800    -0.42800
H645        H  0.42719370  0.98606799  0.73159158     0.13300
H646        H  0.45373585  0.00136123  0.86109961     0.09800
H647        H  0.38338742  0.95192083  0.84717034     0.10900
H648        H  0.36463766  0.04816385  0.91269297     0.16700
C649        C  0.23025559  0.15178949  0.19519972    -0.01500
C650        C  0.23435513  0.15431675  0.15718140     0.07100
C651        C  0.24099603  0.18269288  0.14258186    -0.07500
C652        C  0.24383222  0.20811691  0.16502842     0.04500
C653        C  0.23974197  0.20564688  0.20304445    -0.14700
C654        C  0.23314315  0.17725450  0.21772980    -0.08000
C655        C  0.23437114  0.12749368  0.13233579     0.05500
C656        C  0.21183820  0.12455886  0.10574208    -0.09200
C657        C  0.21351061  0.10161875  0.07914413     0.00500
C658        C  0.23838312  0.08143021  0.07843522     0.00300
C659        C  0.26018072  0.08378026  0.10597375    -0.12700
C660        C  0.25833000  0.10630440  0.13268899     0.00800
C661        C  0.19058683  0.10055121  0.05150629     0.40100
C662        C  0.28231333  0.10831088  0.15894766     0.36700
C663        C  0.22248792  0.12340141  0.21157415     0.36500
C664        C  0.25180918  0.23638589  0.14848272     0.37200
N665        N  0.17219786  0.09964482  0.02933666    -0.43600
N666        N  0.30146026  0.10994568  0.18007742    -0.44000
N667        N  0.25839230  0.25893630  0.13505697    -0.41400
N668        N  0.21620050  0.10065378  0.22473050    -0.42800
H669        H  0.22952949  0.17514497  0.24677855     0.13300
H670        H  0.24464703  0.18484950  0.11353617     0.09800
H671        H  0.19336462  0.14076975  0.10512732     0.10900
H672        H  0.27948283  0.06853670  0.10581610     0.16700
C673        C  0.60446315  0.00926909  0.10782367    -0.01500
C674        C  0.61581883  0.01100507  0.14350588     0.07100
C675        C  0.64650891  0.01581918  0.14907945    -0.07500
C676        C  0.66598918  0.01893967  0.11956054     0.04500
C677        C  0.65460708  0.01749516  0.08387248    -0.14700
C678        C  0.62394182  0.01242565  0.07832053    -0.08000
C679        C  0.59579504  0.00867510  0.17530816     0.05500
C680        C  0.58059904  0.98166995  0.18160843    -0.09200
C681        C  0.55899332  0.97984516  0.20914534     0.00500
C682        C  0.55281694  0.00528414  0.23088362     0.00300
C683        C  0.56907412  0.03175852  0.22566230    -0.12700
C684        C  0.59041212  0.03369057  0.19805260     0.00800
C685        C  0.54213224  0.95249664  0.21280850     0.40100
C686        C  0.60518033  0.06206972  0.19225308     0.36700
C687        C  0.57291924  0.00463058  0.10087376     0.36500
C688        C  0.69772695  0.02125322  0.12666123     0.37200
N689        N  0.52869510  0.93047470  0.21534950    -0.43600
N690        N  0.61700285  0.08480040  0.18756315    -0.44000
N691        N  0.72314352  0.02255605  0.13283799    -0.41400
N692        N  0.54764984  0.00082038  0.09539426    -0.42800
H693        H  0.61525736  0.01081341  0.05085656     0.13300
H694        H  0.65526093  0.01670151  0.17656456     0.09800
H695        H  0.58486923  0.96240584  0.16410221     0.10900
H696        H  0.56432899  0.05136091  0.24244312     0.16700
C697        C  0.62120891  0.98976755  0.87491503    -0.01500
C698        C  0.62344722  0.01441535  0.85084607     0.07100
C699        C  0.64107789  0.03907960  0.86007906    -0.07500
C700        C  0.65723578  0.03915597  0.89243764     0.04500
C701        C  0.65669227  0.01355615  0.91522555    -0.14700
C702        C  0.63851336  0.98916695  0.90636210    -0.08000
C703        C  0.60598133  0.01571255  0.81708418     0.05500
C704        C  0.58485209  0.03921249  0.81274996    -0.09200
C705        C  0.56403389  0.03834544  0.78455550     0.00500
C706        C  0.56415852  0.01333724  0.76116071     0.00300
C707        C  0.58694686  0.99137804  0.76334990    -0.12700
C708        C  0.60833266  0.99272221  0.79076994     0.00800
C709        C  0.54094552  0.06149294  0.78249143     0.40100
C710        C  0.63182147  0.96990017  0.79204001     0.36700
C711        C  0.60049427  0.96550583  0.86876265     0.36500
C712        C  0.67434368  0.06560685  0.90103008     0.37200
N713        N  0.52235000  0.07994975  0.78085832    -0.43600
N714        N  0.65060155  0.95159300  0.79307545    -0.44000
N715        N  0.68758000  0.08719096  0.90754004    -0.41400
N716        N  0.58384565  0.94612878  0.86389572    -0.42800
H717        H  0.63739669  0.96988502  0.92444268     0.13300
H718        H  0.64207535  0.05835588  0.84198152     0.09800
H719        H  0.58342969  0.05719304  0.83267875     0.10900
H720        H  0.58733092  0.97262959  0.74440347     0.16700
C721        C  0.55470304  0.82026022  0.66536004    -0.01500
C722        C  0.53248944  0.83842797  0.68217145     0.07100
C723        C  0.50243762  0.83555577  0.67130539    -0.07500
C724        C  0.49510686  0.81921109  0.64031611     0.04500
C725        C  0.51833239  0.80579550  0.61923670    -0.14700
C726        C  0.54763865  0.80448156  0.63369955    -0.08000
C727        C  0.54035254  0.86707163  0.70020259     0.05500
C728        C  0.55820151  0.88680179  0.67996566    -0.09200
C729        C  0.55524118  0.91783215  0.68428068     0.00500
C730        C  0.53378648  0.92955898  0.70899421     0.00300
C731        C  0.51967298  0.90986490  0.73334582    -0.12700
C732        C  0.52320256  0.87864932  0.72942684     0.00800
C733        C  0.57355794  0.93674665  0.66161186     0.40100
C734        C  0.50717290  0.85890070  0.75360627     0.36700
C735        C  0.58532516  0.81978030  0.67834474     0.36500
C736        C  0.46380334  0.81836353  0.62997305     0.37200
N737        N  0.58862055  0.95111235  0.64294541    -0.43600
N738        N  0.49442498  0.84301192  0.77303003    -0.44000
N739        N  0.43869166  0.81775721  0.62186406    -0.41400
N740        N  0.60980043  0.81946620  0.68895093    -0.42800
H741        H  0.56556783  0.79285392  0.61913180     0.13300
H742        H  0.48492093  0.84890766  0.68442741     0.09800
H743        H  0.57201964  0.87829275  0.65779987     0.10900
H744        H  0.50410846  0.91864055  0.75358891     0.16700
C745        C  0.52883226  0.89453584  0.43159607    -0.01500
C746        C  0.50292037  0.91313634  0.43118433     0.07100
C747        C  0.47845018  0.90650613  0.45355028    -0.07500
C748        C  0.47858000  0.88011992  0.47418646     0.04500
C749        C  0.50350268  0.86002890  0.47203752    -0.14700
C750        C  0.52902487  0.86818536  0.45217721    -0.08000
C751        C  0.49912540  0.93617309  0.40293625     0.05500
C752        C  0.49342353  0.92621762  0.36771885    -0.09200
C753        C  0.49227319  0.94637331  0.33883073     0.00500
C754        C  0.49712034  0.97756475  0.34486013     0.00300
C755        C  0.50127048  0.98746978  0.38103468    -0.12700
C756        C  0.50223468  0.96699644  0.40995169     0.00800
C757        C  0.48656006  0.93398198  0.30321681     0.40100
C758        C  0.50727631  0.97785337  0.44641596     0.36700
C759        C  0.55471319  0.90121185  0.40939844     0.36500
C760        C  0.45282833  0.87404542  0.49692028     0.37200
N761        N  0.48161995  0.92386968  0.27489906    -0.43600
N762        N  0.51122218  0.98643392  0.47570498    -0.44000
N763        N  0.43226841  0.86921237  0.51524275    -0.41400
N764        N  0.57540453  0.90659092  0.39155146    -0.42800
H765        H  0.54840032  0.85308210  0.45089121     0.13300
H766        H  0.45867822  0.92111571  0.45336436     0.09800
H767        H  0.49051394  0.90231991  0.36271493     0.10900
H768        H  0.50450074  0.01089351  0.38747471     0.16700
C769        C  0.72477614  0.32870366  0.35279774    -0.01500
C770        C  0.72299832  0.35788837  0.33746694     0.07100
C771        C  0.72753864  0.36105369  0.29976535    -0.07500
C772        C  0.73363230  0.33599183  0.27753909     0.04500
C773        C  0.73459258  0.30681174  0.29274241    -0.14700
C774        C  0.73034378  0.30362330  0.33044537    -0.08000
C775        C  0.72179632  0.38562438  0.36056809     0.05500
C776        C  0.74600001  0.40519874  0.35800549    -0.09200
C777        C  0.74879897  0.42961732  0.38153744     0.00500
C778        C  0.72696111  0.43516214  0.40913148     0.00300
C779        C  0.70136453  0.41690573  0.40989668    -0.12700
C780        C  0.69859302  0.39235249  0.38582707     0.00800
C781        C  0.77548717  0.44736305  0.37730226     0.40100
C782        C  0.67185364  0.37445917  0.38766912     0.36700
C783        C  0.72258775  0.32392902  0.39154278     0.36500
C784        C  0.73858899  0.34080093  0.23919589     0.37200
N785        N  0.79744180  0.46060162  0.37337356    -0.43600
N786        N  0.65026780  0.36030545  0.38927206    -0.44000
N787        N  0.74265954  0.34463701  0.20846559    -0.41400
N788        N  0.72080760  0.32001099  0.42257995    -0.42800
H789        H  0.73162126  0.28134387  0.34251969     0.13300
H790        H  0.72701461  0.38338445  0.28776836     0.09800
H791        H  0.76372973  0.40055770  0.33837288     0.10900
H792        H  0.68424729  0.42079547  0.43046380     0.16700
C793        C  0.65535921  0.25135244  0.34271505    -0.01500
C794        C  0.63653171  0.27658913  0.33537894     0.07100
C795        C  0.64160552  0.29331881  0.30362457    -0.07500
C796        C  0.66590595  0.28623231  0.28049163     0.04500
C797        C  0.68607566  0.26239646  0.28940053    -0.14700
C798        C  0.67983938  0.24453409  0.31988664    -0.08000
C799        C  0.61318544  0.28687195  0.36215025     0.05500
C800        C  0.62270196  0.29547680  0.39688192    -0.09200
C801        C  0.60199820  0.30125519  0.42480700     0.00500
C802        C  0.57078290  0.29846624  0.41843412     0.00300
C803        C  0.56108502  0.29241156  0.38282449    -0.12700
C804        C  0.58201460  0.28656301  0.35473776     0.00800
C805        C  0.61352463  0.30790486  0.46059070     0.40100
C806        C  0.57102330  0.27780933  0.31946641     0.36700
C807        C  0.65014347  0.23226567  0.37382147     0.36500
C808        C  0.66957808  0.30365756  0.24770894     0.37200
N809        N  0.62282299  0.31300286  0.48926954    -0.43600
N810        N  0.56219432  0.27076388  0.29118960    -0.44000
N811        N  0.67216547  0.31762077  0.22134157    -0.41400
N812        N  0.64589805  0.21696390  0.39873429    -0.42800
H813        H  0.69485482  0.22590739  0.32668100     0.13300
H814        H  0.62704053  0.31243065  0.29740643     0.09800
H815        H  0.64658935  0.29632556  0.40265495     0.10900
H816        H  0.53731205  0.28946393  0.37767015     0.16700
C817        C  0.81592268  0.23071934  0.14420514    -0.01500
C818        C  0.84594539  0.23409265  0.15610989     0.07100
C819        C  0.85064068  0.24226026  0.19266712    -0.07500
C820        C  0.82631636  0.24679003  0.21691969     0.04500
C821        C  0.79631001  0.24364846  0.20475433    -0.14700
C822        C  0.79176590  0.23617353  0.16803012    -0.08000
C823        C  0.87203963  0.23207718  0.12981413     0.05500
C824        C  0.87073624  0.24972936  0.09820375    -0.09200
C825        C  0.89403613  0.24931264  0.07261249     0.00500
C826        C  0.92038691  0.23163744  0.07842697     0.00300
C827        C  0.92188791  0.21355205  0.10979796    -0.12700
C828        C  0.89797206  0.21358865  0.13535054     0.00800
C829        C  0.89036868  0.26778210  0.04047297     0.40100
C830        C  0.90057893  0.19451873  0.16697780     0.36700
C831        C  0.80914322  0.22116393  0.10763361     0.36500
C832        C  0.83284302  0.25415722  0.25426221     0.37200
N833        N  0.88727992  0.28260176  0.01481593    -0.43600
N834        N  0.90269356  0.17926697  0.19239899    -0.44000
N835        N  0.83810390  0.26013090  0.28418578    -0.41400
N836        N  0.80371846  0.21361405  0.07828779    -0.42800
H837        H  0.76903350  0.23429663  0.15782368     0.13300
H838        H  0.87339081  0.24555469  0.20223715     0.09800
H839        H  0.85139449  0.26439648  0.09359864     0.10900
H840        H  0.94207482  0.20028018  0.11502125     0.16700
C841        C  0.73468441  0.16444361  0.16044917    -0.01500
C842        C  0.76076088  0.14612770  0.16422324     0.07100
C843        C  0.78012338  0.15119209  0.19360002    -0.07500
C844        C  0.77484807  0.17533723  0.21754208     0.04500
C845        C  0.75037056  0.19537883  0.21151084    -0.14700
C846        C  0.72981049  0.18889179  0.18384100    -0.08000
C847        C  0.76907166  0.12347745  0.13592503     0.05500
C848        C  0.77374075  0.13372973  0.10035709    -0.09200
C849        C  0.77664376  0.11348688  0.07143170     0.00500
C850        C  0.77566980  0.08209055  0.07789486     0.00300
C851        C  0.77467515  0.07182638  0.11400134    -0.12700
C852        C  0.77066942  0.09222160  0.14296016     0.00800
C853        C  0.77903686  0.12570951  0.03517138     0.40100
C854        C  0.76542501  0.08050346  0.17897658     0.36700
C855        C  0.71270959  0.15871656  0.13252746     0.36500
C856        C  0.79475135  0.17913690  0.24807292     0.37200
N857        N  0.78083151  0.13602841  0.00637356    -0.43600
N858        N  0.76098071  0.07109415  0.20780668    -0.44000
N859        N  0.81057370  0.18201735  0.27272238    -0.41400
N860        N  0.69501948  0.15404560  0.11028075    -0.42800
H861        H  0.71055700  0.20373779  0.17953149     0.13300
H862        H  0.79982073  0.13682679  0.19719688     0.09800
H863        H  0.77337306  0.15775563  0.09491666     0.10900
H864        H  0.77432613  0.04783494  0.11930469     0.16700
C865        C  0.58766081  0.75865003  0.36181968    -0.01500
C866        C  0.60774764  0.73394216  0.35870963     0.07100
C867        C  0.60295738  0.70828016  0.38029823    -0.07500
C868        C  0.57950944  0.70768029  0.40612759     0.04500
C869        C  0.56079600  0.73342044  0.41113652    -0.14700
C870        C  0.56451039  0.75814058  0.38760249    -0.08000
C871        C  0.63512389  0.73584017  0.33534470     0.05500
C872        C  0.66318069  0.73961308  0.35203629    -0.09200
C873        C  0.68918242  0.74437848  0.33123767     0.00500
C874        C  0.68748687  0.74491476  0.29287286     0.00300
C875        C  0.65939064  0.74124337  0.27620718    -0.12700
C876        C  0.63337319  0.73664784  0.29704078     0.00800
C877        C  0.71715420  0.74958000  0.34987466     0.40100
C878        C  0.60512156  0.73260752  0.27859132     0.36700
C879        C  0.59162007  0.78570880  0.34061386     0.36500
C880        C  0.57639587  0.68115989  0.42844747     0.37200
N881        N  0.73952296  0.75383901  0.36490201    -0.43600
N882        N  0.58242910  0.72943057  0.26385803    -0.44000
N883        N  0.57380432  0.65978462  0.44614713    -0.41400
N884        N  0.59480769  0.80736787  0.32359514    -0.42800
H885        H  0.55023975  0.77801310  0.39074327     0.13300
H886        H  0.61818054  0.68907516  0.37777554     0.09800
H887        H  0.66461323  0.73962114  0.38147424     0.10900
H888        H  0.65790395  0.74143214  0.24677649     0.16700
C889        C  0.70444437  0.65517403  0.31369303    -0.01500
C890        C  0.72665484  0.64779915  0.33964766     0.07100
C891        C  0.75368137  0.66372631  0.33945494    -0.07500
C892        C  0.75796044  0.68808697  0.31595606     0.04500
C893        C  0.73510452  0.69663874  0.29119237    -0.14700
C894        C  0.70902833  0.67908840  0.28939491    -0.08000
C895        C  0.72187553  0.62508159  0.36891794     0.05500
C896        C  0.71790917  0.59456814  0.36014688    -0.09200
C897        C  0.71728433  0.57239450  0.38749699     0.00500
C898        C  0.72129466  0.58069816  0.42430668     0.00300
C899        C  0.72343722  0.61141673  0.43297945    -0.12700
C900        C  0.72346508  0.63348412  0.40585985     0.00800
C901        C  0.71453346  0.54125232  0.37680819     0.40100
C902        C  0.72561884  0.66469629  0.41659044     0.36700
C903        C  0.67616923  0.63968408  0.31276646     0.36500
C904        C  0.78531633  0.70489766  0.31956715     0.37200
N905        N  0.71240868  0.51628720  0.36821309    -0.43600
N906        N  0.72737106  0.68972902  0.42501502    -0.44000
N907        N  0.80736272  0.71813141  0.32277432    -0.41400
N908        N  0.65346349  0.62730892  0.31203241    -0.42800
H909        H  0.69169777  0.68475409  0.26977790     0.13300
H910        H  0.77108746  0.65784076  0.35893693     0.09800
H911        H  0.71651112  0.58792924  0.33183663     0.10900
H912        H  0.72591256  0.61819916  0.46114214     0.16700
C913        C  0.77477158  0.84857622  0.18396802    -0.01500
C914        C  0.75438442  0.85471339  0.15552775     0.07100
C915        C  0.73037502  0.83501332  0.14984156    -0.07500
C916        C  0.72622724  0.80985992  0.17233930     0.04500
C917        C  0.74612124  0.80418405  0.20145080    -0.14700
C918        C  0.77035201  0.82369201  0.20683663    -0.08000
C919        C  0.75645082  0.88258883  0.13300489     0.05500
C920        C  0.78022061  0.88611747  0.10810531    -0.09200
C921        C  0.78114684  0.91125125  0.08468821     0.00500
C922        C  0.75839957  0.93379839  0.08677513     0.00300
C923        C  0.73577824  0.93088608  0.11337201    -0.12700
C924        C  0.73424438  0.90543512  0.13562400     0.00800
C925        C  0.80403486  0.91195978  0.05684563     0.40100
C926        C  0.70879145  0.90264666  0.15979776     0.36700
C927        C  0.80008273  0.86780620  0.19046238     0.36500
C928        C  0.70200793  0.78960846  0.16439488     0.37200
N929        N  0.82224743  0.91245825  0.03434349    -0.43600
N930        N  0.68817438  0.90019416  0.17875386    -0.44000
N931        N  0.68271778  0.77319950  0.15812919    -0.41400
N932        N  0.82042414  0.88323285  0.19536552    -0.42800
H933        H  0.78594381  0.81935656  0.22890301     0.13300
H934        H  0.71477392  0.83940241  0.12777748     0.09800
H935        H  0.79728247  0.86850980  0.10580080     0.10900
H936        H  0.71798978  0.94781699  0.11531753     0.16700
C937        C  0.81174809  0.75382152  0.13760332    -0.01500
C938        C  0.84103505  0.75842784  0.15090856     0.07100
C939        C  0.84543013  0.76256475  0.18827639    -0.07500
C940        C  0.82115127  0.76157161  0.21252815     0.04500
C941        C  0.79200003  0.75592232  0.19939645    -0.14700
C942        C  0.78752067  0.75250861  0.16188629    -0.08000
C943        C  0.86759589  0.75635788  0.12664600     0.05500
C944        C  0.87683917  0.78174147  0.10704249    -0.09200
C945        C  0.90089512  0.77966155  0.08228039     0.00500
C946        C  0.91540703  0.75156905  0.07625168     0.00300
C947        C  0.90673533  0.72657779  0.09712782    -0.12700
C948        C  0.88333247  0.72885098  0.12239623     0.00800
C949        C  0.90952852  0.80635307  0.06274424     0.40100
C950        C  0.87543115  0.70251155  0.14322519     0.36700
C951        C  0.80614870  0.74981890  0.09927459     0.36500
C952        C  0.82653117  0.76741619  0.25051797     0.37200
N953        N  0.91662641  0.82795767  0.04756415    -0.43600
N954        N  0.86918926  0.68149777  0.16011532    -0.44000
N955        N  0.83101673  0.77257706  0.28084049    -0.41400
N956        N  0.80154602  0.74667135  0.06856303    -0.42800
H957        H  0.76506351  0.74857654  0.15165341     0.13300
H958        H  0.86792967  0.76627291  0.19849299     0.09800
H959        H  0.86498179  0.80305009  0.11075794     0.10900
H960        H  0.91798091  0.70495506  0.09318422     0.16700
C961        C  0.25569004  0.67208695  0.34079723    -0.01500
C962        C  0.28009023  0.65308059  0.33060572     0.07100
C963        C  0.29439168  0.65812992  0.29716112    -0.07500
C964        C  0.28551904  0.68231949  0.27471864     0.04500
C965        C  0.26181607  0.70192975  0.28548337    -0.14700
C966        C  0.24678113  0.69621682  0.31830068    -0.08000
C967        C  0.28963826  0.62694638  0.35375329     0.05500
C968        C  0.28121226  0.59786738  0.34345148    -0.09200
C969        C  0.28355854  0.57369165  0.36796654     0.00500
C970        C  0.29471358  0.57830754  0.40350082     0.00300
C971        C  0.30652295  0.60658261  0.41211943    -0.12700
C972        C  0.30399092  0.63085171  0.38763190     0.00800
C973        C  0.27131321  0.54503909  0.35746104     0.40100
C974        C  0.31467951  0.65993881  0.39872743     0.36700
C975        C  0.23921780  0.66696676  0.37404677     0.36500
C976        C  0.30089168  0.68651100  0.24056129     0.37200
N977        N  0.26135521  0.52218712  0.34887562    -0.43600
N978        N  0.32349421  0.68311866  0.40785283    -0.44000
N979        N  0.31311745  0.68976295  0.21307168    -0.41400
N980        N  0.22600959  0.66275446  0.40066539    -0.42800
H981        H  0.22853880  0.71111069  0.32678280     0.13300
H982        H  0.31265195  0.64325565  0.28869912     0.09800
H983        H  0.27062979  0.59450960  0.31724962     0.10900
H984        H  0.31470224  0.61063646  0.43942505     0.16700
C985        C  0.31770677  0.75286566  0.35603507    -0.01500
C986        C  0.34791351  0.75193793  0.34405623     0.07100
C987        C  0.35364355  0.75331755  0.30646807    -0.07500
C988        C  0.32990768  0.75540811  0.28113383     0.04500
C989        C  0.29968159  0.75534854  0.29313807    -0.14700
C990        C  0.29406839  0.75431840  0.33074819    -0.08000
C991        C  0.37353549  0.75072149  0.37062800     0.05500
C992        C  0.38967234  0.72363340  0.37632889    -0.09200
C993        C  0.41228140  0.72130782  0.40320395     0.00500
C994        C  0.41908923  0.74647487  0.42538836     0.00300
C995        C  0.40335660  0.77376424  0.41853960    -0.12700
C996        C  0.38109252  0.77605982  0.39160454     0.00800
C997        C  0.42731101  0.69255902  0.40798681     0.40100
C998        C  0.36629422  0.80483320  0.38581880     0.36700
C999        C  0.31042507  0.75242225  0.39428797     0.36500
C1000       C  0.33706488  0.75739777  0.24294310     0.37200
N1001       N  0.43934378  0.66946013  0.41164702    -0.43600
N1002       N  0.35447357  0.82789758  0.38106783    -0.44000
N1003       N  0.34271927  0.75916560  0.21229710    -0.41400
N1004       N  0.30467230  0.75214848  0.42498516    -0.42800
H1005       H  0.27102341  0.75472274  0.34042284     0.13300
H1006       H  0.37672372  0.75313825  0.29692521     0.09800
H1007       H  0.38411360  0.70401635  0.36025168     0.10900
H1008       H  0.40839520  0.79365854  0.43437464     0.16700
C1009       C  0.16758645  0.74209331  0.14347737    -0.01500
C1010       C  0.14236839  0.76056439  0.15211712     0.07100
C1011       C  0.14345803  0.77817451  0.18384277    -0.07500
C1012       C  0.16881015  0.77726046  0.20685167     0.04500
C1013       C  0.19382348  0.75840144  0.19847800    -0.14700
C1014       C  0.19274471  0.74091522  0.16666740    -0.08000
C1015       C  0.11409431  0.75971560  0.12970985     0.05500
C1016       C  0.09731990  0.73321163  0.12974585    -0.09200
C1017       C  0.07256522  0.72969095  0.10657491     0.00500
C1018       C  0.06399133  0.75289741  0.08198584     0.00300
C1019       C  0.07947453  0.78034025  0.08374231    -0.12700
C1020       C  0.10431382  0.78387774  0.10731107     0.00800
C1021       C  0.05645281  0.70169123  0.10839026     0.40100
C1022       C  0.12042232  0.81186173  0.10665455     0.36700
C1023       C  0.16839557  0.72468390  0.11033384     0.36500
C1024       C  0.16832497  0.79522920  0.23952756     0.37200
N1025       N  0.04353780  0.67927685  0.10993495    -0.43600
N1026       N  0.13334613  0.83430343  0.10619271    -0.44000
N1027       N  0.16792139  0.80958524  0.26578526    -0.41400
N1028       N  0.16901951  0.71092438  0.08361392    -0.42800
H1029       H  0.21193045  0.72674850  0.15953070     0.13300
H1030       H  0.12421283  0.79223419  0.19102828     0.09800
H1031       H  0.10409523  0.71478753  0.14745670     0.10900
H1032       H  0.07331124  0.79842171  0.06527166     0.16700
C1033       C  0.25511397  0.90672962  0.13083771    -0.01500
C1034       C  0.22838022  0.89022923  0.13365072     0.07100
C1035       C  0.20358954  0.89887999  0.11204189    -0.07500
C1036       C  0.20588462  0.92241105  0.08637746     0.04500
C1037       C  0.23365315  0.93685916  0.08127254    -0.14700
C1038       C  0.25759898  0.92946236  0.10471930    -0.08000
C1039       C  0.22743283  0.86250035  0.15670566     0.05500
C1040       C  0.22948873  0.86505965  0.19468326    -0.09200
C1041       C  0.23350720  0.83945932  0.21675380     0.00500
C1042       C  0.23576204  0.81046101  0.20090590     0.00300
C1043       C  0.23313452  0.80796997  0.16290957    -0.12700
C1044       C  0.22865263  0.83351335  0.14093508     0.00800
C1045       C  0.23524367  0.84355789  0.25561863     0.40100
C1046       C  0.22665881  0.82954001  0.10205777     0.36700
C1047       C  0.28100145  0.89957861  0.15305002     0.36500
C1048       C  0.17998670  0.93038104  0.06470965     0.37200
N1049       N  0.23671933  0.84674096  0.28678798    -0.43600
N1050       N  0.22493853  0.82639669  0.07090070    -0.44000
N1051       N  0.15907727  0.93696578  0.04762921    -0.41400
N1052       N  0.30165304  0.89391594  0.17101553    -0.42800
H1053       H  0.27893816  0.94073728  0.10157458     0.13300
H1054       H  0.18274912  0.88667262  0.11450685     0.09800
H1055       H  0.22871900  0.88724811  0.20702733     0.10900
H1056       H  0.23530222  0.78601555  0.15020369     0.16700
C1057       C  0.39467536  0.70124704  0.63666764    -0.01500
C1058       C  0.36905190  0.72025931  0.63217799     0.07100
C1059       C  0.36668082  0.73753067  0.60040887    -0.07500
C1060       C  0.38867349  0.73618173  0.57351177     0.04500
C1061       C  0.41536080  0.71911823  0.57897303    -0.14700
C1062       C  0.41792143  0.70123839  0.61039464    -0.08000
C1063       C  0.34431879  0.72331140  0.65974617     0.05500
C1064       C  0.35092458  0.73169933  0.69569644    -0.09200
C1065       C  0.32784556  0.73750521  0.72105781     0.00500
C1066       C  0.29739166  0.73534768  0.71051503     0.00300
C1067       C  0.29086937  0.72778007  0.67430201    -0.12700
C1068       C  0.31383282  0.72117272  0.64935875     0.00800
C1069       C  0.33598960  0.74534961  0.75779438     0.40100
C1070       C  0.30574688  0.71241787  0.61291201     0.36700
C1071       C  0.39767799  0.68188907  0.66801057     0.36500
C1072       C  0.38376559  0.75389333  0.54099214     0.37200
N1073       N  0.34243095  0.75183832  0.78720986    -0.43600
N1074       N  0.30048989  0.70598019  0.58314105    -0.44000
N1075       N  0.37926792  0.76808816  0.51512067    -0.41400
N1076       N  0.39996455  0.66634661  0.69315589    -0.42800
H1077       H  0.43847618  0.68844011  0.61520804     0.13300
H1078       H  0.34757515  0.75268175  0.59669369     0.09800
H1079       H  0.37415799  0.73424765  0.70383453     0.10900
H1080       H  0.26764146  0.72644826  0.66563561     0.16700
C1081       C  0.28462913  0.64630113  0.69678359    -0.01500
C1082       C  0.26229026  0.63921120  0.67097779     0.07100
C1083       C  0.23398828  0.65356771  0.67414836    -0.07500
C1084       C  0.22927842  0.67772551  0.69815094     0.04500
C1085       C  0.25256619  0.68676022  0.72167899    -0.14700
C1086       C  0.27939925  0.66949845  0.72220873    -0.08000
C1087       C  0.26888467  0.62025599  0.63790123     0.05500
C1088       C  0.28019619  0.59052756  0.64109412    -0.09200
C1089       C  0.28525905  0.57228079  0.61011096     0.00500
C1090       C  0.27981270  0.58404791  0.57483202     0.00300
C1091       C  0.26989047  0.61422965  0.57200034    -0.12700
C1092       C  0.26359772  0.63181176  0.60261744     0.00800
C1093       C  0.29343427  0.54101469  0.61566583     0.40100
C1094       C  0.25005670  0.66118629  0.59664601     0.36700
C1095       C  0.31374685  0.63154020  0.69636350     0.36500
C1096       C  0.20142188  0.69467788  0.69531460     0.37200
N1097       N  0.29950691  0.51584029  0.62017995    -0.43600
N1098       N  0.23843743  0.68434968  0.59182467    -0.44000
N1099       N  0.17915503  0.70833790  0.69286648    -0.41400
N1100       N  0.33702263  0.61954122  0.69623997    -0.42800
H1101       H  0.29717882  0.67562124  0.74080814     0.13300
H1102       H  0.21613397  0.64748229  0.65562790     0.09800
H1103       H  0.28371248  0.58102255  0.66793235     0.10900
H1104       H  0.26531939  0.62396710  0.54549497     0.16700
C1105       C  0.22109466  0.85199875  0.80634853    -0.01500
C1106       C  0.23244974  0.85405063  0.84215152     0.07100
C1107       C  0.24773651  0.82895121  0.85687809    -0.07500
C1108       C  0.25222909  0.80247777  0.83654882     0.04500
C1109       C  0.24130762  0.80055655  0.80065534    -0.14700
C1110       C  0.22567103  0.82544894  0.78593559    -0.08000
C1111       C  0.22988830  0.88223263  0.86456896     0.05500
C1112       C  0.21412066  0.88162813  0.89774491    -0.09200
C1113       C  0.21542333  0.90582161  0.92244712     0.00500
C1114       C  0.23244684  0.93154128  0.91403966     0.00300
C1115       C  0.24720102  0.93261806  0.88021427    -0.12700
C1116       C  0.24609268  0.90837448  0.85564309     0.00800
C1117       C  0.20171225  0.90231420  0.95773086     0.40100
C1118       C  0.26392254  0.90977451  0.82286612     0.36700
C1119       C  0.20408156  0.87654492  0.79036073     0.36500
C1120       C  0.26809341  0.77741885  0.85308226     0.37200
N1121       N  0.19091015  0.89908939  0.98607189    -0.43600
N1122       N  0.27823422  0.91077496  0.79659513    -0.44000
N1123       N  0.28074055  0.75724410  0.86625764    -0.41400
N1124       N  0.19042892  0.89621279  0.77751049    -0.42800
H1125       H  0.21666108  0.82396745  0.75863917     0.13300
H1126       H  0.25655103  0.83019541  0.88430044     0.09800
H1127       H  0.20202969  0.86149159  0.90520063     0.10900
H1128       H  0.26125932  0.95171530  0.87395929     0.16700
C1129       C  0.17072087  0.75221150  0.86561249    -0.01500
C1130       C  0.14447529  0.76573930  0.85074479     0.07100
C1131       C  0.14442244  0.77415669  0.81393290    -0.07500
C1132       C  0.16945703  0.76840871  0.79176553     0.04500
C1133       C  0.19533119  0.75442888  0.80650993    -0.14700
C1134       C  0.19579499  0.74659843  0.84338648    -0.08000
C1135       C  0.11618923  0.76892188  0.87226550     0.05500
C1136       C  0.11615744  0.78500849  0.90521138    -0.09200
C1137       C  0.09139862  0.78398072  0.92886169     0.00500
C1138       C  0.06579674  0.76758273  0.91893468     0.00300
C1139       C  0.06486129  0.75372760  0.88476019    -0.12700
C1140       C  0.08980965  0.75393748  0.86161569     0.00800
C1141       C  0.09388048  0.79735185  0.96449370     0.40100
C1142       C  0.08872541  0.73603842  0.82886034     0.36700
C1143       C  0.17230457  0.74314103  0.90327832     0.36500
C1144       C  0.16797674  0.77662544  0.75383146     0.37200
N1145       N  0.09599617  0.80792187  0.99311553    -0.43600
N1146       N  0.08786319  0.72157077  0.80272244    -0.44000
N1147       N  0.16676606  0.78318485  0.72341240    -0.41400
N1148       N  0.17374511  0.73605548  0.93351834    -0.42800
H1149       H  0.21577680  0.73599250  0.85476698     0.13300
H1150       H  0.12449589  0.78470764  0.80232685     0.09800
H1151       H  0.13619036  0.79683563  0.91343783     0.10900
H1152       H  0.04550758  0.74039275  0.87752994     0.16700
C1153       C  0.27571160  0.36074253  0.68349159    -0.01500
C1154       C  0.25579676  0.36651871  0.65434532     0.07100
C1155       C  0.23267583  0.34596055  0.64774530    -0.07500
C1156       C  0.22905044  0.32030475  0.66957636     0.04500
C1157       C  0.24909437  0.31433249  0.69852287    -0.14700
C1158       C  0.27233916  0.33479875  0.70510670    -0.08000
C1159       C  0.25819795  0.39387919  0.63056391     0.05500
C1160       C  0.28411987  0.39837265  0.60930401    -0.09200
C1161       C  0.28562930  0.42216478  0.58392019     0.00500
C1162       C  0.26068494  0.44201134  0.57920713     0.00300
C1163       C  0.23558181  0.43835120  0.60220890    -0.12700
C1164       C  0.23410364  0.41471769  0.62735924     0.00800
C1165       C  0.31246387  0.42465597  0.56208888     0.40100
C1166       C  0.20728575  0.41215867  0.64929434     0.36700
C1167       C  0.29913285  0.38162596  0.69241884     0.36500
C1168       C  0.20515352  0.29986592  0.66096280     0.37200
N1169       N  0.33404080  0.42662603  0.54466372    -0.43600
N1170       N  0.18571512  0.41010278  0.66670972    -0.44000
N1171       N  0.18597631  0.28348047  0.65413143    -0.41400
N1172       N  0.31780441  0.39850780  0.69954191    -0.42800
H1173       H  0.28782606  0.33051995  0.72731092     0.13300
H1174       H  0.21739191  0.34994912  0.62525571     0.09800
H1175       H  0.30285493  0.38257744  0.61161315     0.10900
H1176       H  0.21638523  0.45358492  0.59989363     0.16700
C1177       C  0.31772416  0.27254820  0.63546882    -0.01500
C1178       C  0.34731773  0.26978413  0.64901630     0.07100
C1179       C  0.35149902  0.26594206  0.68656042    -0.07500
C1180       C  0.32677219  0.26416706  0.71038007     0.04500
C1181       C  0.29705377  0.26624918  0.69674184    -0.14700
C1182       C  0.29306112  0.27038831  0.65912159    -0.08000
C1183       C  0.37381996  0.26852219  0.62393898     0.05500
C1184       C  0.39433450  0.29231541  0.62276348    -0.09200
C1185       C  0.41825863  0.29235025  0.59745824     0.00500
C1186       C  0.42180777  0.26824493  0.57240963     0.00300
C1187       C  0.40196336  0.24382448  0.57533245    -0.12700
C1188       C  0.37839215  0.24377166  0.60054657     0.00800
C1189       C  0.43840053  0.31752613  0.59773319     0.40100
C1190       C  0.35916184  0.21784669  0.60199241     0.36700
C1191       C  0.31214865  0.27759737  0.59726542     0.36500
C1192       C  0.33252804  0.26027875  0.74871066     0.37200
N1193       N  0.45463141  0.33766425  0.59821417    -0.43600
N1194       N  0.34377043  0.19707239  0.60314163    -0.44000
N1195       N  0.33712698  0.25696574  0.77942139    -0.41400
N1196       N  0.30774871  0.28167662  0.56664340    -0.42800
H1197       H  0.27051812  0.27163361  0.64804576     0.13300
H1198       H  0.37414473  0.26371362  0.69719089     0.09800
H1199       H  0.39129426  0.31118710  0.64119196     0.10900
H1200       H  0.40464045  0.22443689  0.55764004     0.16700
C1201       C  0.08515603  0.25540421  0.85257585    -0.01500
C1202       C  0.10967203  0.23489883  0.85169405     0.07100
C1203       C  0.10930574  0.20994217  0.87536300    -0.07500
C1204       C  0.08645563  0.20677942  0.90171949     0.04500
C1205       C  0.06334229  0.22882953  0.90465756    -0.14700
C1206       C  0.06240492  0.25221959  0.87871598    -0.08000
C1207       C  0.13669660  0.24044135  0.82823423     0.05500
C1208       C  0.15417197  0.26611505  0.83453644    -0.09200
C1209       C  0.18008830  0.27185296  0.81376880     0.00500
C1210       C  0.18908383  0.25170485  0.78590241     0.00300
C1211       C  0.17097508  0.22664624  0.77885068    -0.12700
C1212       C  0.14534016  0.22069046  0.79992674     0.00800
C1213       C  0.19738784  0.29823648  0.82206539     0.40100
C1214       C  0.12793290  0.19443129  0.79157007     0.36700
C1215       C  0.08336777  0.28048248  0.82761086     0.36500
C1216       C  0.08872079  0.18224330  0.92734472     0.37200
N1217       N  0.21118087  0.31946964  0.82856531    -0.43600
N1218       N  0.11398630  0.17334604  0.78489737    -0.44000
N1219       N  0.09058829  0.16246817  0.94777129    -0.41400
N1220       N  0.08201241  0.30049645  0.80747879    -0.42800
H1221       H  0.04490192  0.26945398  0.88061390     0.13300
H1222       H  0.12779438  0.19377336  0.87457417     0.09800
H1223       H  0.14773414  0.28154440  0.85615030     0.10900
H1224       H  0.17689491  0.21159548  0.75670680     0.16700
C1225       C  0.22503496  0.15402444  0.79730291    -0.01500
C1226       C  0.23302780  0.15539656  0.83449197     0.07100
C1227       C  0.24462481  0.18254693  0.84797605    -0.07500
C1228       C  0.24761071  0.20798644  0.82553239     0.04500
C1229       C  0.23923899  0.20664202  0.78861808    -0.14700
C1230       C  0.22853456  0.17935773  0.77473272    -0.08000
C1231       C  0.23071053  0.12867275  0.85950275     0.05500
C1232       C  0.24679612  0.10199173  0.85128823    -0.09200
C1233       C  0.24830979  0.07792484  0.87615392     0.00500
C1234       C  0.23346488  0.08005352  0.91007039     0.00300
C1235       C  0.21608680  0.10599259  0.91757602    -0.12700
C1236       C  0.21452730  0.13010464  0.89268317     0.00800
C1237       C  0.26634878  0.05165998  0.86701351     0.40100
C1238       C  0.19671513  0.15640910  0.90216951     0.36700
C1239       C  0.21219186  0.12724568  0.78190629     0.36500
C1240       C  0.25979346  0.23517203  0.84074765     0.37200
N1241       N  0.28071342  0.03054842  0.85972829    -0.43600
N1242       N  0.18253165  0.17755956  0.90976600    -0.44000
N1243       N  0.26968991  0.25696505  0.85279117    -0.41400
N1244       N  0.20182282  0.10583351  0.76947249    -0.42800
H1245       H  0.22215908  0.17809904  0.74633852     0.13300
H1246       H  0.25156060  0.18382586  0.87617178     0.09800
H1247       H  0.25938133  0.10047004  0.82605846     0.10900
H1248       H  0.20504107  0.10813188  0.94378828     0.16700
C1249       C  0.66989404  0.27130095  0.64560188    -0.01500
C1250       C  0.64029479  0.27212413  0.65971559     0.07100
C1251       C  0.63623631  0.26721784  0.69718635    -0.07500
C1252       C  0.66089346  0.26242781  0.72049728     0.04500
C1253       C  0.69055223  0.26266744  0.70657805    -0.14700
C1254       C  0.69451721  0.26658062  0.66890857    -0.08000
C1255       C  0.61328572  0.27461061  0.63542857     0.05500
C1256       C  0.59350956  0.25035842  0.63434933    -0.09200
C1257       C  0.56997469  0.24949027  0.60914266     0.00500
C1258       C  0.56575789  0.27320984  0.58368497     0.00300
C1259       C  0.58403073  0.29871275  0.58670690    -0.12700
C1260       C  0.60751839  0.29964888  0.61244298     0.00800
C1261       C  0.55090552  0.22342180  0.60957271     0.40100
C1262       C  0.62551129  0.32639311  0.61467593     0.36700
C1263       C  0.67557608  0.27404985  0.60708816     0.36500
C1264       C  0.65515556  0.25783882  0.75872237     0.37200
N1265       N  0.53578151  0.20243740  0.60995936    -0.43600
N1266       N  0.63992182  0.34783456  0.61658854    -0.44000
N1267       N  0.65054861  0.25402816  0.78934671    -0.41400
N1268       N  0.68011909  0.27629197  0.57621852    -0.42800
H1269       H  0.71704468  0.26592731  0.65761009     0.13300
H1270       H  0.61362835  0.26704451  0.70827304     0.09800
H1271       H  0.59718158  0.23135331  0.65244522     0.10900
H1272       H  0.58101642  0.31724835  0.56779015     0.16700
C1273       C  0.75143183  0.33719574  0.65297922    -0.01500
C1274       C  0.72653277  0.35730388  0.65575020     0.07100
C1275       C  0.70705037  0.35448216  0.68565912    -0.07500
C1276       C  0.71166608  0.33186071  0.71194696     0.04500
C1277       C  0.73588946  0.31105349  0.70833353    -0.14700
C1278       C  0.75588975  0.31446091  0.67910065    -0.08000
C1279       C  0.72075170  0.38133292  0.62777479     0.05500
C1280       C  0.71630128  0.37298857  0.59134674    -0.09200
C1281       C  0.71447539  0.39475457  0.56366790     0.00500
C1282       C  0.71674086  0.42575382  0.57213420     0.00300
C1283       C  0.71885122  0.43421666  0.60882464    -0.12700
C1284       C  0.72099564  0.41237184  0.63651512     0.00800
C1285       C  0.71089214  0.38468868  0.52658104     0.40100
C1286       C  0.72560063  0.42233936  0.67339388     0.36700
C1287       C  0.77294491  0.33957274  0.62371293     0.36500
C1288       C  0.69135188  0.33058058  0.74251775     0.37200
N1289       N  0.70797633  0.37664435  0.49687871    -0.43600
N1290       N  0.72928785  0.43025576  0.70300285    -0.44000
N1291       N  0.67504336  0.32976528  0.76703882    -0.41400
N1292       N  0.79021102  0.34144596  0.60027119    -0.42800
H1293       H  0.77456290  0.29866666  0.67605067     0.13300
H1294       H  0.68800724  0.36986390  0.68831888     0.09800
H1295       H  0.71523409  0.34928124  0.58436839     0.10900
H1296       H  0.72103002  0.45785014  0.61568096     0.16700
C1297       C  0.73996322  0.17128608  0.84802276    -0.01500
C1298       C  0.76313978  0.15048262  0.83895501     0.07100
C1299       C  0.78012793  0.15534792  0.80735783    -0.07500
C1300       C  0.77494419  0.18098637  0.78562360     0.04500
C1301       C  0.75267181  0.20249372  0.79564395    -0.14700
C1302       C  0.73496467  0.19701845  0.82649063    -0.08000
C1303       C  0.76974731  0.12374664  0.86248891     0.05500
C1304       C  0.75782293  0.09567845  0.85328678    -0.09200
C1305       C  0.75869751  0.07158109  0.87810776     0.00500
C1306       C  0.77213141  0.07517211  0.91265059     0.00300
C1307       C  0.78661894  0.10232615  0.92029081    -0.12700
C1308       C  0.78519076  0.12665296  0.89578113     0.00800
C1309       C  0.74382117  0.04397688  0.86859265     0.40100
C1310       C  0.79783439  0.15510748  0.90634797     0.36700
C1311       C  0.72090351  0.16648533  0.87924145     0.36500
C1312       C  0.79227598  0.18448456  0.75272409     0.37200
N1313       N  0.73180152  0.02191416  0.86096564    -0.43600
N1314       N  0.80772663  0.17804924  0.91472375    -0.44000
N1315       N  0.80605723  0.18726131  0.72624387    -0.41400
N1316       N  0.70559433  0.16249194  0.90420543    -0.42800
H1317       H  0.71746224  0.21311553  0.83403106     0.13300
H1318       H  0.79755611  0.13918436  0.79979393     0.09800
H1319       H  0.74612321  0.09317414  0.82764806     0.10900
H1320       H  0.79676345  0.10544359  0.94673906     0.16700
C1321       C  0.84906538  0.24253545  0.81169609    -0.01500
C1322       C  0.84590641  0.24735996  0.84950412     0.07100
C1323       C  0.81726796  0.25518080  0.86316317    -0.07500
C1324       C  0.79214939  0.25780150  0.84001408     0.04500
C1325       C  0.79534041  0.25290564  0.80221674    -0.14700
C1326       C  0.82403205  0.24557638  0.78848809    -0.08000
C1327       C  0.87247627  0.24672850  0.87476294     0.05500
C1328       C  0.88320646  0.27408209  0.88809689    -0.09200
C1329       C  0.90783085  0.27509319  0.91193645     0.00500
C1330       C  0.92230492  0.24805703  0.92404065     0.00300
C1331       C  0.91182502  0.22057552  0.90992353    -0.12700
C1332       C  0.88727434  0.21976331  0.88555074     0.00800
C1333       C  0.91801361  0.30455096  0.92262222     0.40100
C1334       C  0.87714417  0.19097510  0.87254881     0.36700
C1335       C  0.87797188  0.23509073  0.79600804     0.36500
C1336       C  0.76340765  0.26631543  0.85547674     0.37200
N1337       N  0.92611904  0.32819835  0.93106038    -0.43600
N1338       N  0.86896426  0.16795681  0.86196402    -0.44000
N1339       N  0.74035602  0.27322014  0.86779218    -0.41400
N1340       N  0.90117068  0.22905763  0.78348120    -0.42800
H1341       H  0.82686117  0.24206289  0.75951265     0.13300
H1342       H  0.81457285  0.25942899  0.89202867     0.09800
H1343       H  0.87235868  0.29494371  0.87950195     0.10900
H1344       H  0.92232654  0.19958172  0.91856521     0.16700
C1345       C  0.69438677  0.61048286  0.62588795    -0.01500
C1346       C  0.71548824  0.63406309  0.62351038     0.07100
C1347       C  0.73693036  0.63289648  0.59563037    -0.07500
C1348       C  0.73838860  0.60878262  0.57130448     0.04500
C1349       C  0.71881895  0.58399260  0.57508898    -0.14700
C1350       C  0.69629230  0.58555559  0.60191374    -0.08000
C1351       C  0.71711446  0.65947706  0.65041417     0.05500
C1352       C  0.72124711  0.65304449  0.68758008    -0.09200
C1353       C  0.72613036  0.67615932  0.71301898     0.00500
C1354       C  0.72727410  0.70648424  0.70148999     0.00300
C1355       C  0.72349579  0.71285303  0.66434938    -0.12700
C1356       C  0.71802123  0.68994149  0.63906548     0.00800
C1357       C  0.72950132  0.66827144  0.75087004     0.40100
C1358       C  0.71307055  0.69843566  0.60161889     0.36700
C1359       C  0.67057824  0.61156198  0.65255284     0.36500
C1360       C  0.76083257  0.61003837  0.54285520     0.37200
N1361       N  0.73218124  0.66203964  0.78125760    -0.43600
N1362       N  0.70921200  0.70530764  0.57161381    -0.44000
N1363       N  0.77888869  0.61145436  0.52024024    -0.41400
N1364       N  0.65143868  0.61267714  0.67388903    -0.42800
H1365       H  0.68101642  0.56693025  0.60508264     0.13300
H1366       H  0.75329179  0.65068815  0.59332897     0.09800
H1367       H  0.72123686  0.62980960  0.69669235     0.10900
H1368       H  0.72463548  0.73598884  0.65504823     0.16700
C1369       C  0.57743958  0.72750565  0.64136362    -0.01500
C1370       C  0.60886773  0.72657123  0.63534322     0.07100
C1371       C  0.61956649  0.71575396  0.60180600    -0.07500
C1372       C  0.59977593  0.70841500  0.57361011     0.04500
C1373       C  0.56831342  0.71175520  0.57841469    -0.14700
C1374       C  0.55748192  0.72017810  0.61299502    -0.08000
C1375       C  0.63122173  0.73736500  0.66280659     0.05500
C1376       C  0.63478769  0.72190306  0.69587702    -0.09200
C1377       C  0.65826001  0.72893505  0.71987971     0.00500
C1378       C  0.67894249  0.75168464  0.71096290     0.00300
C1379       C  0.67404933  0.76864931  0.67923572    -0.12700
C1380       C  0.65060906  0.76160907  0.65517622     0.00800
C1381       C  0.66114390  0.71207357  0.75325672     0.40100
C1382       C  0.64709708  0.77936434  0.62251763     0.36700
C1383       C  0.56514211  0.73801900  0.67548192     0.36500
C1384       C  0.61241172  0.69868373  0.53927786     0.37200
N1385       N  0.66334070  0.69867444  0.78013599    -0.43600
N1386       N  0.64420481  0.79365799  0.59640129    -0.44000
N1387       N  0.62256756  0.69089993  0.51178850    -0.41400
N1388       N  0.55525778  0.74651031  0.70281178    -0.42800
H1389       H  0.53349709  0.72347354  0.61701280     0.13300
H1390       H  0.64362243  0.71401744  0.59720460     0.09800
H1391       H  0.61990647  0.70351849  0.70233123     0.10900
H1392       H  0.68962074  0.78630372  0.67219988     0.16700
C1393       C  0.89578079  0.74802332  0.85346970    -0.01500
C1394       C  0.87134668  0.76820561  0.85908091     0.07100
C1395       C  0.87227427  0.78766199  0.88931776    -0.07500
C1396       C  0.89608214  0.78608750  0.91461598     0.04500
C1397       C  0.91958785  0.76465924  0.91000721    -0.14700
C1398       C  0.91948434  0.74660033  0.87856533    -0.08000
C1399       C  0.84346115  0.76693378  0.83610930     0.05500
C1400       C  0.81621603  0.75860803  0.85250005    -0.09200
C1401       C  0.78987780  0.75524104  0.83188849     0.00500
C1402       C  0.79033060  0.76010079  0.79393190     0.00300
C1403       C  0.81754135  0.76830273  0.77744741    -0.12700
C1404       C  0.84376351  0.77226583  0.79817225     0.00800
C1405       C  0.76269377  0.74630850  0.85018286     0.40100
C1406       C  0.87042306  0.78285224  0.78009364     0.36700
C1407       C  0.89587858  0.72657798  0.82395594     0.36500
C1408       C  0.89452309  0.80501607  0.94640149     0.37200
N1409       N  0.74092331  0.73908226  0.86486211    -0.43600
N1410       N  0.89178706  0.79135979  0.76557738    -0.44000
N1411       N  0.89292538  0.82044604  0.97168566    -0.41400
N1412       N  0.89601313  0.70940402  0.80028549    -0.42800
H1413       H  0.93708490  0.72966935  0.87490889     0.13300
H1414       H  0.85366712  0.80325606  0.89400915     0.09800
H1415       H  0.81562275  0.75428197  0.88151448     0.10900
H1416       H  0.81799538  0.77270857  0.74844971     0.16700
C1417       C  0.77841571  0.84877920  0.81933152    -0.01500
C1418       C  0.75884453  0.85564802  0.84863134     0.07100
C1419       C  0.73160758  0.83992454  0.85106928    -0.07500
C1420       C  0.72476605  0.81653897  0.82690194     0.04500
C1421       C  0.74463161  0.80924457  0.79814110    -0.14700
C1422       C  0.77074613  0.82648084  0.79400007    -0.08000
C1423       C  0.76582475  0.87893134  0.87704442     0.05500
C1424       C  0.77407232  0.90832217  0.86676981    -0.09200
C1425       C  0.77645396  0.93155846  0.89266794     0.00500
C1426       C  0.76886384  0.92601767  0.92929995     0.00300
C1427       C  0.76314391  0.89622036  0.93995085    -0.12700
C1428       C  0.76221833  0.87276301  0.91454500     0.00800
C1429       C  0.78547948  0.96104661  0.88074504     0.40100
C1430       C  0.75703707  0.84261713  0.92778100     0.36700
C1431       C  0.80723510  0.86299021  0.81556902     0.36500
C1432       C  0.69797952  0.79937903  0.83346229     0.37200
N1433       N  0.79331050  0.98455242  0.87134984    -0.43600
N1434       N  0.75284369  0.81850108  0.93844828    -0.44000
N1435       N  0.67657017  0.78555091  0.83884031    -0.41400
N1436       N  0.83038355  0.87428210  0.81244467    -0.42800
H1437       H  0.78584999  0.82173228  0.77151180     0.13300
H1438       H  0.71581523  0.84542761  0.87264594     0.09800
H1439       H  0.77742109  0.91356616  0.83828728     0.10900
H1440       H  0.75828887  0.89139975  0.96827562     0.16700
loop_ 
_geom_bond_atom_site_label_1 
_geom_bond_atom_site_label_2 
_geom_bond_distance 
_geom_bond_site_symmetry_2 
_ccdc_geom_bond_type 
C1            C2   1.421       .  A
C1            C6   1.416       .  A
C1         C1421   1.503       .  S
C2            C3   1.410       .  A
C2         C1402   1.500       .  S
C3            C4   1.411       .  A
C3            H8   1.084       .  S
C4            C5   1.418       .  A
C4         C1354   1.500       .  S
C5            C6   1.411       .  A
C5         C1378   1.501       .  S
C6            H7   1.083       .  S
C9           C10   1.417       .  A
C9           C14   1.412       .  A
C9         C1325   1.503       .  S
C10          C11   1.411       .  A
C10        C1301   1.494       .  S
C11          C12   1.412       .  A
C11          H16   1.084       .  S
C12          C13   1.421       .  A
C12        C1253   1.505       .  S
C13          C14   1.414       .  A
C13        C1277   1.499       .  S
C14          H15   1.084       .  S
C17          C18   1.418       .  A
C17          C22   1.412       .  A
C17        C1210   1.503       .  S
C18          C19   1.409       .  A
C18        C1229   1.496       .  S
C19          C20   1.413       .  A
C19          H24   1.084       .  S
C20          C21   1.421       .  A
C20        C1181   1.504       .  S
C21          C22   1.413       .  A
C21        C1157   1.501       .  S
C22          H23   1.084       .  S
C25          C26   1.409       .  A
C25          C30   1.404       .  A
C25        C1133   1.480       .  S
C26          C27   1.407       .  A
C26        C1109   1.496       .  S
C27          C28   1.414       .  A
C27          H32   1.084       .  S
C28          C29   1.425       .  A
C28        C1066   1.498       .  S
C29          C30   1.408       .  A
C29        C1085   1.504       .  S
C30          H31   1.084       .  S
C33          C34   1.421       .  A
C33          C38   1.415       .  A
C33        C1013   1.507       .  S
C34          C35   1.416       .  A
C34        C1042   1.501       .  S
C35          C36   1.409       .  A
C35          H40   1.084       .  S
C36          C37   1.416       .  A
C36         C989   1.505       .  S
C37          C38   1.414       .  A
C37         C965   1.495       .  S
C38          H39   1.084       .  S
C41          C42   1.411       .  A
C41          C46   1.403       .  A
C41         C941   1.484       .  S
C42          C43   1.409       .  A
C42         C917   1.494       .  S
C43          C44   1.410       .  A
C43          H48   1.084       .  S
C44          C45   1.421       .  A
C44         C874   1.494       .  S
C45          C46   1.407       .  A
C45         C893   1.497       .  S
C46          H47   1.084       .  S
C49          C50   1.424       .  A
C49          C54   1.414       .  A
C49         C821   1.513       .  S
C50          C51   1.409       .  A
C50         C845   1.491       .  S
C51          C52   1.403       .  A
C51          H56   1.084       .  S
C52          C53   1.416       .  A
C52         C797   1.498       .  S
C53          C54   1.414       .  A
C53         C773   1.496       .  S
C54          H55   1.083       .  S
Fe57         O73   2.026       .  S
Fe57         O63   2.088       .  S
Fe57         O70   2.087       .  S
Fe57         O62   2.016       .  S
Fe57         O68   1.911       .  S
Fe58         O61   2.027       .  S
Fe58         O65   2.070       .  S
Fe58         O69   2.042       .  S
Fe58         O74   2.052       .  S
Fe58         O68   1.938       .  S
Fe59         O77   2.152       .  S
Fe59         O64   2.126       .  S
Fe59         O71   2.105       .  S
Fe59         O60   2.124       .  S
Fe59         O68   1.939       .  S
O60          C67   1.277       .  A
O61          C75   1.271       .  A
O62          C67   1.257       .  A
O63          C66   1.280       .  A
O64          C76   1.274       .  A
O65          C78   1.265       .  A
C66         C994   1.511       .  S
C66          O71   1.283       .  A
C67        C1061   1.479       .  S
O69          C72   1.271       .  A
O70          C72   1.279       .  A
C72         C725   1.483       .  S
O73          C78   1.259       .  A
O74          C76   1.257       .  A
C75         C869   1.493       .  S
C75          O77   1.291       .  A
C76        C1373   1.493       .  S
C78         C749   1.466       .  S
Fe79         O95   2.057   1_556  S
Fe79         O85   2.051   1_556  S
Fe79         O92   2.068       .  S
Fe79         O84   2.032       .  S
Fe79         O90   1.935   1_556  S
Fe80         O83   2.020       .  S
Fe80         O87   2.070       .  S
Fe80         O91   2.030   1_554  S
Fe80         O96   2.059   1_554  S
Fe80         O90   1.932   1_565  S
Fe81         O99   2.137   1_545  S
Fe81         O86   2.095   1_544  S
Fe81         O93   2.097       .  S
Fe81         O82   2.141   1_554  S
Fe81         O90   1.939       .  S
O82          C89   1.287       .  A
O83          C97   1.267       .  A
O84          C89   1.267       .  A
O85          C88   1.264       .  A
O86          C98   1.274       .  A
O87         C100   1.267   1_565  A
C88         C850   1.483       .  S
C88          O93   1.273       .  A
C89        C1306   1.485       .  S
O91          C94   1.265   1_565  A
O92          C94   1.268       .  A
C94         C701   1.458       .  S
O95         C100   1.267       .  A
O96          C98   1.267       .  A
C97         C922   1.491       .  S
C97          O99   1.287       .  A
C98        C1426   1.489       .  S
C100        C677   1.464       .  S
Fe101       O117   2.056       .  S
Fe101       O107   2.051       .  S
Fe101       O114   2.059   1_556  S
Fe101       O106   2.046   1_556  S
Fe101       O112   1.973       .  S
Fe102       O105   2.043       .  S
Fe102       O109   2.057       .  S
Fe102       O113   2.047   1_556  S
Fe102       O118   2.042   1_556  S
Fe102       O112   1.971   1_565  S
Fe103       O121   2.128   1_545  S
Fe103       O108   2.107   1_546  S
Fe103       O115   2.110       .  S
Fe103       O104   2.124   1_556  S
Fe103       O112   1.985       .  S
O104        C111   1.281       .  A
O105        C119   1.266       .  A
O106        C111   1.266       .  A
O107        C110   1.265       .  A
O108        C120   1.275       .  A
O109        C122   1.265   1_565  A
C110       C1234   1.487       .  S
C110        O115   1.277       .  A
C111        C658   1.496       .  S
O113        C116   1.264   1_565  A
O114        C116   1.267       .  A
C116        C605   1.480       .  S
O117        C122   1.267       .  A
O118        C120   1.264       .  A
C119       C1114   1.489       .  S
C119        O121   1.282       .  A
C120       C1037   1.490       .  S
C122        C634   1.485       .  S
Fe123       O139   2.017       .  S
Fe123       O129   2.071       .  S
Fe123       O136   2.073       .  S
Fe123       O128   2.018       .  S
Fe123       O134   1.903       .  S
Fe124       O127   2.027       .  S
Fe124       O131   2.088       .  S
Fe124       O135   2.048       .  S
Fe124       O140   2.050       .  S
Fe124       O134   1.932       .  S
Fe125       O143   2.162       .  S
Fe125       O130   2.119       .  S
Fe125       O137   2.095       .  S
Fe125       O126   2.152       .  S
Fe125       O134   1.929       .  S
O126        C133   1.284       .  A
O127        C141   1.272       .  A
O128        C133   1.257       .  A
O129        C132   1.275       .  A
O130        C142   1.275       .  A
O131        C144   1.269       .  A
C132       C1186   1.504       .  S
C132        O137   1.279       .  A
C133        C581   1.490       .  S
O135        C138   1.269       .  A
O136        C138   1.274       .  A
C138        C562   1.479       .  S
O139        C144   1.258       .  A
O140        C142   1.259       .  A
C141       C1258   1.497       .  S
C141        O143   1.294       .  A
C142        C802   1.487       .  S
C144        C533   1.467       .  S
C145        C146   1.536       .  S
C145        C151   1.547   1_565  S
C145        C149   1.544       .  S
C145        C754   1.527       .  S
C146        H153   1.086       .  S
C146        C147   1.361   1_565  D
C147        C148   1.529       .  S
C147        C610   1.473       .  S
C148        C152   1.521       .  S
C148        C150   1.523       .  S
C148        H154   1.111       .  S
C149        H155   1.086       .  S
C149        C150   1.360   1_565  D
C150        C682   1.468       .  S
C151        H156   1.081       .  S
C151        C152   1.367       .  D
C152        C557   1.473       .  S
C157        C158   1.547       .  S
C157        C163   1.531   1_545  S
C157        C161   1.537       .  S
C157        C538   1.524       .  S
C158        H165   1.083       .  S
C158        C159   1.373   1_545  D
C159        C160   1.540       .  S
C159        C629   1.495       .  S
C160        C164   1.527       .  S
C160        C162   1.526   1_565  S
C160        H166   1.108       .  S
C161        H167   1.086       .  S
C161        C162   1.353       .  D
C162        C706   1.454       .  S
C163        H168   1.086       .  S
C163        C164   1.364       .  D
C164        C730   1.479       .  S
Fe169       O185   2.027       .  S
Fe169       O175   2.076       .  S
Fe169       O182   2.086       .  S
Fe169       O174   2.018       .  S
Fe169       O180   1.918       .  S
Fe170       O173   2.021       .  S
Fe170       O177   2.086       .  S
Fe170       O181   2.037       .  S
Fe170       O186   2.085       .  S
Fe170       O180   1.918       .  S
Fe171       O189   2.158       .  S
Fe171       O176   2.076       .  S
Fe171       O183   2.099       .  S
Fe171       O172   2.150       .  S
Fe171       O180   1.935       .  S
O172        C179   1.288       .  A
O173        C187   1.258       .  A
O174        C179   1.264       .  A
O175        C178   1.270       .  A
O176        C188   1.275       .  A
O177        C190   1.274       .  A
C178       C1282   1.490       .  S
C178        O183   1.278       .  A
C179        C778   1.496       .  S
O181        C184   1.262       .  A
O182        C184   1.272       .  A
C184        C509   1.461       .  S
O185        C190   1.264       .  A
O186        C188   1.275       .  A
C187       C1349   1.493       .  S
C187        O189   1.284       .  A
C188        C898   1.487       .  S
C190        C485   1.476       .  S
Fe191       O207   2.044   1_556  S
Fe191       O197   2.041   1_556  S
Fe191       O204   2.054       .  S
Fe191       O196   2.035       .  S
Fe191       O202   1.974       .  S
Fe192       O195   2.050   1_556  S
Fe192       O199   2.051   1_556  S
Fe192       O203   2.057       .  S
Fe192       O208   2.034       .  S
Fe192       O202   1.975   1_455  S
Fe193       O211   2.129   1_656  S
Fe193       O198   2.088   1_655  S
Fe193       O205   2.091   1_556  S
Fe193       O194   2.130       .  S
Fe193       O202   1.996       .  S
O194        C201   1.281       .  A
O195        C209   1.267       .  A
O196        C201   1.263       .  A
O197        C200   1.265       .  A
O198        C210   1.272       .  A
O199        C212   1.265   1_455  A
C200        C946   1.483       .  S
C200        O205   1.273       .  A
C201       C1397   1.493       .  S
O203        C206   1.266   1_455  A
O204        C206   1.266       .  A
C206        C461   1.483       .  S
O207        C212   1.264       .  A
O208        C210   1.263       .  A
C209       C1018   1.504       .  S
C209        O211   1.281       .  A
C210       C1138   1.468       .  S
C212        C437   1.463       .  S
Fe213       O229   2.043   1_554  S
Fe213       O219   2.075   1_554  S
Fe213       O226   2.093   1_655  S
Fe213       O218   2.029       .  S
Fe213       O224   1.912   1_655  S
Fe214       O217   2.012   1_554  S
Fe214       O221   2.052   1_554  S
Fe214       O225   2.025       .  S
Fe214       O230   2.043       .  S
Fe214       O224   1.945       .  S
Fe215       O233   2.184   1_655  S
Fe215       O220   2.141   1_656  S
Fe215       O227   2.118       .  S
Fe215       O216   2.142   1_556  S
Fe215       O224   1.923   1_656  S
O216        C223   1.285       .  A
O217        C231   1.269       .  A
O218        C223   1.264       .  A
O219        C222   1.275       .  A
O220        C232   1.273       .  A
O221        C234   1.257       .  A
C222       C1330   1.513       .  S
C222        O227   1.285       .  A
C223        C826   1.495       .  S
O225        C228   1.270       .  A
O226        C228   1.282       .  A
C228        C370   1.471       .  S
O229        C234   1.261   1_655  A
O230        C232   1.251       .  A
C231       C1205   1.492       .  S
C231        O233   1.300       .  A
C232        C413   1.501       .  S
C234        C394   1.468       .  S
Fe235       O251   2.041       .  S
Fe235       O241   2.069       .  S
Fe235       O248   2.078       .  S
Fe235       O240   2.040       .  S
Fe235       O246   1.916       .  S
Fe236       O239   2.014       .  S
Fe236       O243   2.065       .  S
Fe236       O247   2.043       .  S
Fe236       O252   2.058       .  S
Fe236       O246   1.935       .  S
Fe237       O255   2.152       .  S
Fe237       O242   2.102       .  S
Fe237       O249   2.101       .  S
Fe237       O238   2.129       .  S
Fe237       O246   1.933       .  S
O238        C245   1.283       .  A
O239        C253   1.262       .  A
O240        C245   1.269       .  A
O241        C244   1.270       .  A
O242        C254   1.273       .  A
O243        C256   1.268       .  A
C244        C341   1.487       .  S
C244        O249   1.278       .  A
C245       C1162   1.502       .  S
O247        C250   1.266       .  A
O248        C250   1.274       .  A
C250        C293   1.459       .  S
O251        C256   1.265       .  A
O252        C254   1.265       .  A
C253        C970   1.480       .  S
C253        O255   1.288       .  A
C254       C1090   1.502       .  S
C256        C317   1.478       .  S
C257        C258   1.533       .  S
C257        C263   1.542       .  S
C257        C261   1.541   1_455  S
C257        C365   1.525       .  S
C258        H265   1.087       .  S
C258        C259   1.359       .  D
C259        C260   1.518       .  S
C259        C322   1.460       .  S
C260        C264   1.533   1_455  S
C260        C262   1.530   1_455  S
C260        H266   1.111   1_455  S
C261        H267   1.080       .  S
C261        C262   1.364       .  D
C262        C514   1.479       .  S
C263        H268   1.086       .  S
C263        C264   1.367   1_455  D
C264        C442   1.474       .  S
C269        C270   1.545   1_455  S
C269        C275   1.537       .  S
C269        C273   1.526       .  S
C269        C389   1.518       .  S
C270        H277   1.082       .  S
C270        C271   1.368       .  D
C271        C272   1.535   1_655  S
C271        C490   1.472       .  S
C272        C276   1.531       .  S
C272        C274   1.529       .  S
C272        H278   1.110       .  S
C273        H279   1.086       .  S
C273        C274   1.358       .  D
C274        C298   1.465       .  S
C275        H280   1.087       .  S
C275        C276   1.360       .  D
C276        C466   1.483       .  S
C281        C282   1.419       .  A
C281        C286   1.415       .  A
C281        C418   1.507       .  S
C282        C283   1.413       .  A
C282        C653   1.501       .  S
C283        C284   1.415       .  A
C283        H288   1.083       .  S
C284        C285   1.425       .  A
C284        C586   1.512       .  S
C285        C286   1.415       .  A
C285        C346   1.505       .  S
C286        H287   1.084       .  S
C289        C290   1.408       .  A
C289        C294   1.392       .  A
C289        C303   1.445       .  S
C290        C291   1.400       .  A
C290        C295   1.467       .  S
C291        C292   1.395       .  A
C291        H310   1.085       .  S
C292        C293   1.408       .  A
C292        C304   1.440       .  S
C293        C294   1.401       .  A
C294        H309   1.085       .  S
C295        C296   1.402       .  A
C295        C300   1.406       .  A
C296        C297   1.389       .  A
C296        H311   1.085       .  S
C297        C298   1.409       .  A
C297        C301   1.445       .  S
C298        C299   1.403       .  A
C299        C300   1.396       .  A
C299        H312   1.085       .  S
C300        C302   1.443       .  S
C301        N305   1.157       .  T
C302        N306   1.157       .  T
C303        N308   1.157       .  T
C304        N307   1.156       .  T
C313        C314   1.402       .  A
C313        C318   1.396       .  A
C313        C327   1.444       .  S
C314        C315   1.399       .  A
C314        C319   1.467       .  S
C315        C316   1.391       .  A
C315        H334   1.086       .  S
C316        C317   1.416       .  A
C316        C328   1.446       .  S
C317        C318   1.411       .  A
C318        H333   1.084       .  S
C319        C320   1.400       .  A
C319        C324   1.412       .  A
C320        C321   1.393       .  A
C320        H335   1.085       .  S
C321        C322   1.407       .  A
C321        C325   1.443       .  S
C322        C323   1.397       .  A
C323        C324   1.393       .  A
C323        H336   1.085       .  S
C324        C326   1.445       .  S
C325        N329   1.157       .  T
C326        N330   1.157       .  T
C327        N332   1.157       .  T
C328        N331   1.158       .  T
C337        C338   1.416       .  A
C337        C342   1.409       .  A
C337        C351   1.443       .  S
C338        C339   1.406       .  A
C338        C343   1.505       .  S
C339        C340   1.404       .  A
C339        H358   1.083       .  S
C340        C341   1.413       .  A
C340        C352   1.445       .  S
C341        C342   1.404       .  A
C342        H357   1.083       .  S
C343        C344   1.405       .  A
C343        C348   1.417       .  A
C344        C345   1.406       .  A
C344        H359   1.084       .  S
C345        C346   1.416       .  A
C345        C349   1.443       .  S
C346        C347   1.405       .  A
C347        C348   1.408       .  A
C347        H360   1.084       .  S
C348        C350   1.444       .  S
C349        N353   1.157       .  T
C350        N354   1.157       .  T
C351        N356   1.157       .  T
C352        N355   1.157       .  T
C361        C362   1.404       .  A
C361        C366   1.396       .  A
C361        C375   1.444       .  S
C362        C363   1.399       .  A
C362        C367   1.472       .  S
C363        C364   1.390       .  A
C363        H382   1.085       .  S
C364        C365   1.418       .  A
C364        C376   1.444       .  S
C365        C366   1.413       .  A
C366        H381   1.077       .  S
C367        C368   1.402       .  A
C367        C372   1.407       .  A
C368        C369   1.390       .  A
C368        H383   1.085   1_455  S
C369        C370   1.412       .  A
C369        C373   1.445   1_455  S
C370        C371   1.408       .  A
C371        C372   1.395       .  A
C371        H384   1.085       .  S
C372        C374   1.444       .  S
C373        N377   1.157       .  T
C374        N378   1.157       .  T
C375        N380   1.157   1_455  T
C376        N379   1.157       .  T
C385        C386   1.407       .  A
C385        C390   1.395       .  A
C385        C399   1.445       .  S
C386        C387   1.393       .  A
C386        C391   1.467       .  S
C387        C388   1.391       .  A
C387        H406   1.085       .  S
C388        C389   1.424       .  A
C388        C400   1.447       .  S
C389        C390   1.406       .  A
C390        H405   1.079       .  S
C391        C392   1.397       .  A
C391        C396   1.412       .  A
C392        C393   1.397       .  A
C392        H407   1.085       .  S
C393        C394   1.418       .  A
C393        C397   1.444       .  S
C394        C395   1.399       .  A
C395        C396   1.388       .  A
C395        H408   1.085   1_455  S
C396        C398   1.446   1_455  S
C397        N401   1.157       .  T
C398        N402   1.157       .  T
C399        N404   1.157   1_455  T
C400        N403   1.157       .  T
C409        C410   1.410       .  A
C409        C414   1.405       .  A
C409        C423   1.445       .  S
C410        C411   1.408       .  A
C410        C415   1.504       .  S
C411        C412   1.414       .  A
C411        H430   1.084       .  S
C412        C413   1.417       .  A
C412        C424   1.443       .  S
C413        C414   1.411       .  A
C414        H429   1.085       .  S
C415        C416   1.408       .  A
C415        C420   1.411       .  A
C416        C417   1.410       .  A
C416        H431   1.084       .  S
C417        C418   1.414       .  A
C417        C421   1.443       .  S
C418        C419   1.409       .  A
C419        C420   1.407       .  A
C419        H432   1.084       .  S
C420        C422   1.442       .  S
C421        N425   1.157       .  T
C422        N426   1.157       .  T
C423        N428   1.157       .  T
C424        N427   1.157       .  T
C433        C434   1.408       .  A
C433        C438   1.395       .  A
C433        C447   1.444       .  S
C434        C435   1.399   1_655  A
C434        C439   1.467       .  S
C435        C436   1.396       .  A
C435        H454   1.085       .  S
C436        C437   1.412   1_455  A
C436        C448   1.445       .  S
C437        C438   1.401       .  A
C438        H453   1.085       .  S
C439        C440   1.401       .  A
C439        C444   1.404   1_655  A
C440        C441   1.400       .  A
C440        H455   1.085       .  S
C441        C442   1.411       .  A
C441        C445   1.443       .  S
C442        C443   1.403   1_655  A
C443        C444   1.390       .  A
C443        H456   1.083       .  S
C444        C446   1.445       .  S
C445        N449   1.157       .  T
C446        N450   1.157       .  T
C447        N452   1.157       .  T
C448        N451   1.157   1_554  T
C457        C458   1.409       .  A
C457        C462   1.396       .  A
C457        C471   1.445       .  S
C458        C459   1.403   1_655  A
C458        C463   1.481   1_655  S
C459        C460   1.399       .  A
C459        H478   1.085       .  S
C460        C461   1.416   1_455  A
C460        C472   1.444       .  S
C461        C462   1.407       .  A
C462        H477   1.085       .  S
C463        C464   1.404   1_455  A
C463        C468   1.409       .  A
C464        C465   1.401       .  A
C464        H479   1.085       .  S
C465        C466   1.413   1_655  A
C465        C469   1.443       .  S
C466        C467   1.405       .  A
C467        C468   1.393       .  A
C467        H480   1.085       .  S
C468        C470   1.445       .  S
C469        N473   1.157       .  T
C470        N474   1.157       .  T
C471        N476   1.157       .  T
C472        N475   1.157       .  T
C481        C482   1.404       .  A
C481        C486   1.392       .  A
C481        C495   1.445       .  S
C482        C483   1.401       .  A
C482        C487   1.467       .  S
C483        C484   1.397       .  A
C483        H502   1.085       .  S
C484        C485   1.414       .  A
C484        C496   1.445       .  S
C485        C486   1.408       .  A
C486        H501   1.085       .  S
C487        C488   1.397       .  A
C487        C492   1.406       .  A
C488        C489   1.391       .  A
C488        H503   1.086       .  S
C489        C490   1.410       .  A
C489        C493   1.442       .  S
C490        C491   1.405       .  A
C491        C492   1.399       .  A
C491        H504   1.085       .  S
C492        C494   1.443       .  S
C493        N497   1.157   1_655  T
C494        N498   1.157       .  T
C495        N500   1.157       .  T
C496        N499   1.158       .  T
C505        C506   1.417       .  A
C505        C510   1.396       .  A
C505        C519   1.445       .  S
C506        C507   1.406       .  A
C506        C511   1.487       .  S
C507        C508   1.395       .  A
C507        H526   1.083       .  S
C508        C509   1.406       .  A
C508        C520   1.443       .  S
C509        C510   1.398       .  A
C510        H525   1.085       .  S
C511        C512   1.404       .  A
C511        C516   1.414       .  A
C512        C513   1.391       .  A
C512        H527   1.084       .  S
C513        C514   1.412       .  A
C513        C517   1.445       .  S
C514        C515   1.403       .  A
C515        C516   1.398       .  A
C515        H528   1.084       .  S
C516        C518   1.444       .  S
C517        N521   1.157       .  T
C518        N522   1.157       .  T
C519        N524   1.157       .  T
C520        N523   1.157       .  T
C529        C530   1.412       .  A
C529        C534   1.399       .  A
C529        C543   1.444       .  S
C530        C531   1.401       .  A
C530        C535   1.477       .  S
C531        C532   1.388       .  A
C531        H550   1.085       .  S
C532        C533   1.412       .  A
C532        C544   1.446       .  S
C533        C534   1.404       .  A
C534        H549   1.085       .  S
C535        C536   1.396       .  A
C535        C540   1.410       .  A
C536        C537   1.391       .  A
C536        H551   1.085       .  S
C537        C538   1.423       .  A
C537        C541   1.445       .  S
C538        C539   1.408       .  A
C539        C540   1.397       .  A
C539        H552   1.080       .  S
C540        C542   1.445       .  S
C541        N545   1.157       .  T
C542        N546   1.157       .  T
C543        N548   1.157       .  T
C544        N547   1.157       .  T
C553        C554   1.411       .  A
C553        C558   1.398       .  A
C553        C567   1.444       .  S
C554        C555   1.406       .  A
C554        C559   1.480       .  S
C555        C556   1.391       .  A
C555        H574   1.084       .  S
C556        C557   1.408       .  A
C556        C568   1.445       .  S
C557        C558   1.403       .  A
C558        H573   1.085       .  S
C559        C560   1.403       .  A
C559        C564   1.409       .  A
C560        C561   1.391       .  A
C560        H575   1.084       .  S
C561        C562   1.415       .  A
C561        C565   1.446       .  S
C562        C563   1.408       .  A
C563        C564   1.399       .  A
C563        H576   1.084       .  S
C564        C566   1.444       .  S
C565        N569   1.158       .  T
C566        N570   1.157       .  T
C567        N572   1.157       .  T
C568        N571   1.157       .  T
C577        C578   1.419       .  A
C577        C582   1.417       .  A
C577        C591   1.442       .  S
C578        C579   1.399       .  A
C578        C583   1.505       .  S
C579        C580   1.395       .  A
C579        H598   1.085       .  S
C580        C581   1.418       .  A
C580        C592   1.444       .  S
C581        C582   1.407       .  A
C582        H597   1.084       .  S
C583        C584   1.408       .  A
C583        C588   1.415       .  A
C584        C585   1.411       .  A
C584        H599   1.084       .  S
C585        C586   1.417       .  A
C585        C589   1.443       .  S
C586        C587   1.408       .  A
C587        C588   1.403       .  A
C587        H600   1.084       .  S
C588        C590   1.445       .  S
C589        N593   1.157       .  T
C590        N594   1.157       .  T
C591        N596   1.157       .  T
C592        N595   1.157       .  T
C601        C602   1.406       .  A
C601        C606   1.396       .  A
C601        C615   1.444       .  S
C602        C603   1.400   1_545  A
C602        C607   1.474       .  S
C603        C604   1.397       .  A
C603        H622   1.085       .  S
C604        C605   1.416   1_565  A
C604        C616   1.444       .  S
C605        C606   1.408       .  A
C606        H621   1.085       .  S
C607        C608   1.402       .  A
C607        C612   1.409       .  A
C608        C609   1.399       .  A
C608        H623   1.085       .  S
C609        C610   1.411       .  A
C609        C613   1.444       .  S
C610        C611   1.401       .  A
C611        C612   1.392       .  A
C611        H624   1.085       .  S
C612        C614   1.445       .  S
C613        N617   1.157       .  T
C614        N618   1.157   1_545  T
C615        N620   1.157       .  T
C616        N619   1.157       .  T
C625        C626   1.406       .  A
C625        C630   1.400       .  A
C625        C639   1.444       .  S
C626        C627   1.396       .  A
C626        C631   1.478       .  S
C627        C628   1.397       .  A
C627        H646   1.086   1_565  S
C628        C629   1.421       .  A
C628        C640   1.441       .  S
C629        C630   1.409       .  A
C630        H645   1.084       .  S
C631        C632   1.399       .  A
C631        C636   1.409   1_565  A
C632        C633   1.398       .  A
C632        H647   1.085       .  S
C633        C634   1.419   1_565  A
C633        C637   1.445       .  S
C634        C635   1.407       .  A
C635        C636   1.398       .  A
C635        H648   1.084       .  S
C636        C638   1.444       .  S
C637        N641   1.157       .  T
C638        N642   1.157       .  T
C639        N644   1.157       .  T
C640        N643   1.157       .  T
C649        C650   1.414       .  A
C649        C654   1.409       .  A
C649        C663   1.443       .  S
C650        C651   1.404       .  A
C650        C655   1.501       .  S
C651        C652   1.406       .  A
C651        H670   1.085       .  S
C652        C653   1.414       .  A
C652        C664   1.443       .  S
C653        C654   1.406       .  A
C654        H669   1.084       .  S
C655        C656   1.409       .  A
C655        C660   1.411       .  A
C656        C657   1.413       .  A
C656        H671   1.084       .  S
C657        C658   1.414       .  A
C657        C661   1.443       .  S
C658        C659   1.409       .  A
C659        C660   1.403       .  A
C659        H672   1.085       .  S
C660        C662   1.444       .  S
C661        N665   1.157       .  T
C662        N666   1.157       .  T
C663        N668   1.157       .  T
C664        N667   1.157       .  T
C673        C674   1.410       .  A
C673        C678   1.396       .  A
C673        C687   1.445       .  S
C674        C675   1.400       .  A
C674        C679   1.473       .  S
C675        C676   1.396       .  A
C675        H694   1.085       .  S
C676        C677   1.410       .  A
C676        C688   1.441       .  S
C677        C678   1.401       .  A
C678        H693   1.085       .  S
C679        C680   1.404   1_545  A
C679        C684   1.408       .  A
C680        C681   1.398       .  A
C680        H695   1.085       .  S
C681        C682   1.407   1_565  A
C681        C685   1.442       .  S
C682        C683   1.402       .  A
C683        C684   1.392       .  A
C683        H696   1.085       .  S
C684        C686   1.445       .  S
C685        N689   1.157       .  T
C686        N690   1.157       .  T
C687        N692   1.157       .  T
C688        N691   1.156       .  T
C697        C698   1.412   1_565  A
C697        C702   1.391       .  A
C697        C711   1.446       .  S
C698        C699   1.398       .  A
C698        C703   1.467       .  S
C699        C700   1.392       .  A
C699        H718   1.085       .  S
C700        C701   1.412       .  A
C700        C712   1.444       .  S
C701        C702   1.400   1_545  A
C702        H717   1.085       .  S
C703        C704   1.403       .  A
C703        C708   1.409   1_545  A
C704        C705   1.393       .  A
C704        H719   1.085       .  S
C705        C706   1.405       .  A
C705        C709   1.444       .  S
C706        C707   1.398   1_545  A
C707        C708   1.390       .  A
C707        H720   1.085       .  S
C708        C710   1.445       .  S
C709        N713   1.157       .  T
C710        N714   1.157       .  T
C711        N716   1.157       .  T
C712        N715   1.157       .  T
C721        C722   1.408       .  A
C721        C726   1.398       .  A
C721        C735   1.444       .  S
C722        C723   1.404       .  A
C722        C727   1.481       .  S
C723        C724   1.393       .  A
C723        H742   1.085       .  S
C724        C725   1.415       .  A
C724        C736   1.445       .  S
C725        C726   1.409       .  A
C726        H741   1.084       .  S
C727        C728   1.403       .  A
C727        C732   1.409       .  A
C728        C729   1.391       .  A
C728        H743   1.085       .  S
C729        C730   1.411       .  A
C729        C733   1.442       .  S
C730        C731   1.405       .  A
C731        C732   1.399       .  A
C731        H744   1.084       .  S
C732        C734   1.443       .  S
C733        N737   1.156       .  T
C734        N738   1.157       .  T
C735        N740   1.157       .  T
C736        N739   1.157       .  T
C745        C746   1.408       .  A
C745        C750   1.393       .  A
C745        C759   1.444       .  S
C746        C747   1.398       .  A
C746        C751   1.466       .  S
C747        C748   1.395       .  A
C747        H766   1.085       .  S
C748        C749   1.414       .  A
C748        C760   1.445       .  S
C749        C750   1.401       .  A
C750        H765   1.085       .  S
C751        C752   1.394       .  A
C751        C756   1.401       .  A
C752        C753   1.389       .  A
C752        H767   1.086       .  S
C753        C754   1.422       .  A
C753        C757   1.445       .  S
C754        C755   1.415       .  A
C755        C756   1.399       .  A
C755        H768   1.078   1_565  S
C756        C758   1.444       .  S
C757        N761   1.157       .  T
C758        N762   1.157       .  T
C759        N764   1.157       .  T
C760        N763   1.157       .  T
C769        C770   1.414       .  A
C769        C774   1.403       .  A
C769        C783   1.444       .  S
C770        C771   1.408       .  A
C770        C775   1.496       .  S
C771        C772   1.403       .  A
C771        H790   1.085       .  S
C772        C773   1.411       .  A
C772        C784   1.443       .  S
C773        C774   1.406       .  A
C774        H789   1.085       .  S
C775        C776   1.396       .  A
C775        C780   1.416       .  A
C776        C777   1.394       .  A
C776        H791   1.086       .  S
C777        C778   1.422       .  A
C777        C781   1.442       .  S
C778        C779   1.407       .  A
C779        C780   1.411       .  A
C779        H792   1.084       .  S
C780        C782   1.441       .  S
C781        N785   1.156       .  T
C782        N786   1.157       .  T
C783        N788   1.157       .  T
C784        N787   1.157       .  T
C793        C794   1.415       .  A
C793        C798   1.403       .  A
C793        C807   1.444       .  S
C794        C795   1.403       .  A
C794        C799   1.496       .  S
C795        C796   1.406       .  A
C795        H814   1.084       .  S
C796        C797   1.416       .  A
C796        C808   1.443       .  S
C797        C798   1.403       .  A
C798        H813   1.084       .  S
C799        C800   1.401       .  A
C799        C804   1.414       .  A
C800        C801   1.399       .  A
C800        H815   1.085       .  S
C801        C802   1.416       .  A
C801        C805   1.446       .  S
C802        C803   1.407       .  A
C803        C804   1.411       .  A
C803        H816   1.085       .  S
C804        C806   1.443       .  S
C805        N809   1.157       .  T
C806        N810   1.157       .  T
C807        N812   1.157       .  T
C808        N811   1.157       .  T
C817        C818   1.416       .  A
C817        C822   1.403       .  A
C817        C831   1.444       .  S
C818        C819   1.409       .  A
C818        C823   1.511       .  S
C819        C820   1.413       .  A
C819        H838   1.084       .  S
C820        C821   1.417       .  A
C820        C832   1.443       .  S
C821        C822   1.407       .  A
C822        H837   1.084       .  S
C823        C824   1.403       .  A
C823        C828   1.421       .  A
C824        C825   1.399       .  A
C824        H839   1.085       .  S
C825        C826   1.417       .  A
C825        C829   1.446       .  S
C826        C827   1.406       .  A
C827        C828   1.418       .  A
C827        H840   1.084       .  S
C828        C830   1.442       .  S
C829        N833   1.157       .  T
C830        N834   1.157       .  T
C831        N836   1.157       .  T
C832        N835   1.157       .  T
C841        C842   1.414       .  A
C841        C846   1.399       .  A
C841        C855   1.444       .  S
C842        C843   1.403       .  A
C842        C847   1.489       .  S
C843        C844   1.404       .  A
C843        H862   1.084       .  S
C844        C845   1.414       .  A
C844        C856   1.443       .  S
C845        C846   1.402       .  A
C846        H861   1.085       .  S
C847        C848   1.401       .  A
C847        C852   1.412       .  A
C848        C849   1.397       .  A
C848        H863   1.085       .  S
C849        C850   1.415       .  A
C849        C853   1.444       .  S
C850        C851   1.405       .  A
C851        C852   1.407       .  A
C851        H864   1.083       .  S
C852        C854   1.443       .  S
C853        N857   1.157       .  T
C854        N858   1.157       .  T
C855        N860   1.157       .  T
C856        N859   1.157       .  T
C865        C866   1.409       .  A
C865        C870   1.399       .  A
C865        C879   1.444       .  S
C866        C867   1.407       .  A
C866        C871   1.492       .  S
C867        C868   1.410       .  A
C867        H886   1.085       .  S
C868        C869   1.415       .  A
C868        C880   1.443       .  S
C869        C870   1.409       .  A
C870        H885   1.085       .  S
C871        C872   1.404       .  A
C871        C876   1.412       .  A
C872        C873   1.404       .  A
C872        H887   1.085       .  S
C873        C874   1.413       .  A
C873        C877   1.443       .  S
C874        C875   1.405       .  A
C875        C876   1.404       .  A
C875        H888   1.085       .  S
C876        C878   1.443       .  S
C877        N881   1.157       .  T
C878        N882   1.157       .  T
C879        N884   1.157       .  T
C880        N883   1.157       .  T
C889        C890   1.410       .  A
C889        C894   1.404       .  A
C889        C903   1.443       .  S
C890        C891   1.404       .  A
C890        C895   1.492       .  S
C891        C892   1.399       .  A
C891        H910   1.085       .  S
C892        C893   1.414       .  A
C892        C904   1.443       .  S
C893        C894   1.408       .  A
C894        H909   1.084       .  S
C895        C896   1.406       .  A
C895        C900   1.411       .  A
C896        C897   1.408       .  A
C896        H911   1.084       .  S
C897        C898   1.416       .  A
C897        C901   1.444       .  S
C898        C899   1.405       .  A
C899        C900   1.398       .  A
C899        H912   1.085       .  S
C900        C902   1.445       .  S
C901        N905   1.158       .  T
C902        N906   1.157       .  T
C903        N908   1.157       .  T
C904        N907   1.157       .  T
C913        C914   1.410       .  A
C913        C918   1.404       .  A
C913        C927   1.443       .  S
C914        C915   1.406       .  A
C914        C919   1.492       .  S
C915        C916   1.403       .  A
C915        H934   1.085       .  S
C916        C917   1.411       .  A
C916        C928   1.444       .  S
C917        C918   1.407       .  A
C918        H933   1.084       .  S
C919        C920   1.408       .  A
C919        C924   1.408       .  A
C920        C921   1.410       .  A
C920        H935   1.084       .  S
C921        C922   1.414       .  A
C921        C925   1.443       .  S
C922        C923   1.409       .  A
C923        C924   1.397       .  A
C923        H936   1.085       .  S
C924        C926   1.445       .  S
C925        N929   1.157       .  T
C926        N930   1.157       .  T
C927        N932   1.157       .  T
C928        N931   1.157       .  T
C937        C938   1.410       .  A
C937        C942   1.400       .  A
C937        C951   1.444       .  S
C938        C939   1.401       .  A
C938        C943   1.481       .  S
C939        C940   1.400       .  A
C939        H958   1.085       .  S
C940        C941   1.411       .  A
C940        C952   1.442       .  S
C941        C942   1.403       .  A
C942        H957   1.085       .  S
C943        C944   1.404       .  A
C943        C948   1.407       .  A
C944        C945   1.406       .  A
C944        H959   1.085       .  S
C945        C946   1.413       .  A
C945        C949   1.442       .  S
C946        C947   1.407       .  A
C947        C948   1.397       .  A
C947        H960   1.085       .  S
C948        C950   1.445       .  S
C949        N953   1.157       .  T
C950        N954   1.157       .  T
C951        N956   1.157       .  T
C952        N955   1.157       .  T
C961        C962   1.415       .  A
C961        C966   1.406       .  A
C961        C975   1.444       .  S
C962        C963   1.403       .  A
C962        C967   1.496       .  S
C963        C964   1.406       .  A
C963        H982   1.084       .  S
C964        C965   1.413       .  A
C964        C976   1.442       .  S
C965        C966   1.404       .  A
C966        H981   1.084       .  S
C967        C968   1.402       .  A
C967        C972   1.413       .  A
C968        C969   1.404       .  A
C968        H983   1.085       .  S
C969        C970   1.415       .  A
C969        C973   1.444       .  S
C970        C971   1.404       .  A
C971        C972   1.407       .  A
C971        H984   1.085       .  S
C972        C974   1.442       .  S
C973        N977   1.157       .  T
C974        N978   1.156       .  T
C975        N980   1.157       .  T
C976        N979   1.157       .  T
C985        C986   1.413       .  A
C985        C990   1.406       .  A
C985        C999   1.443       .  S
C986        C987   1.407       .  A
C986        C991   1.503       .  S
C987        C988   1.412       .  A
C987       H1006   1.084       .  S
C988        C989   1.414       .  A
C988       C1000   1.443       .  S
C989        C990   1.406       .  A
C990       H1005   1.084       .  S
C991        C992   1.407       .  A
C991        C996   1.409       .  A
C992        C993   1.414       .  A
C992       H1007   1.084       .  S
C993        C994   1.420       .  A
C993        C997   1.443       .  S
C994        C995   1.413       .  A
C995        C996   1.405       .  A
C995       H1008   1.084       .  S
C996        C998   1.444       .  S
C997       N1001   1.157       .  T
C998       N1002   1.157       .  T
C999       N1004   1.157       .  T
C1000      N1003   1.157       .  T
C1009      C1010   1.415       .  A
C1009      C1014   1.409       .  A
C1009      C1023   1.444       .  S
C1010      C1011   1.406       .  A
C1010      C1015   1.506       .  S
C1011      C1012   1.411       .  A
C1011      H1030   1.084       .  S
C1012      C1013   1.416       .  A
C1012      C1024   1.442       .  S
C1013      C1014   1.405       .  A
C1014      H1029   1.084       .  S
C1015      C1016   1.402       .  A
C1015      C1020   1.416       .  A
C1016      C1017   1.404       .  A
C1016      H1031   1.085       .  S
C1017      C1018   1.419       .  A
C1017      C1021   1.445       .  S
C1018      C1019   1.410       .  A
C1019      C1020   1.416       .  A
C1019      H1032   1.084       .  S
C1020      C1022   1.443       .  S
C1021      N1025   1.157       .  T
C1022      N1026   1.157       .  T
C1023      N1028   1.157       .  T
C1024      N1027   1.157       .  T
C1033      C1034   1.409       .  A
C1033      C1038   1.398       .  A
C1033      C1047   1.445       .  S
C1034      C1035   1.409       .  A
C1034      C1039   1.495       .  S
C1035      C1036   1.412       .  A
C1035      H1054   1.084       .  S
C1036      C1037   1.412       .  A
C1036      C1048   1.442       .  S
C1037      C1038   1.407       .  A
C1038      H1053   1.086       .  S
C1039      C1040   1.405       .  A
C1039      C1044   1.412       .  A
C1040      C1041   1.406       .  A
C1040      H1055   1.085       .  S
C1041      C1042   1.415       .  A
C1041      C1045   1.443       .  S
C1042      C1043   1.407       .  A
C1043      C1044   1.404       .  A
C1043      H1056   1.084       .  S
C1044      C1046   1.444       .  S
C1045      N1049   1.157       .  T
C1046      N1050   1.157       .  T
C1047      N1052   1.157       .  T
C1048      N1051   1.157       .  T
C1057      C1058   1.418       .  A
C1057      C1062   1.414       .  A
C1057      C1071   1.443       .  S
C1058      C1059   1.401       .  A
C1058      C1063   1.499       .  S
C1059      C1060   1.391       .  A
C1059      H1078   1.085       .  S
C1060      C1061   1.413       .  A
C1060      C1072   1.446       .  S
C1061      C1062   1.406       .  A
C1062      H1077   1.084       .  S
C1063      C1064   1.407       .  A
C1063      C1068   1.414       .  A
C1064      C1065   1.407       .  A
C1064      H1079   1.084       .  S
C1065      C1066   1.414       .  A
C1065      C1069   1.444       .  S
C1066      C1067   1.406       .  A
C1067      C1068   1.399       .  A
C1067      H1080   1.084       .  S
C1068      C1070   1.444       .  S
C1069      N1073   1.157       .  T
C1070      N1074   1.157       .  T
C1071      N1076   1.157       .  T
C1072      N1075   1.157       .  T
C1081      C1082   1.414       .  A
C1081      C1086   1.408       .  A
C1081      C1095   1.443       .  S
C1082      C1083   1.407       .  A
C1082      C1087   1.505       .  S
C1083      C1084   1.402       .  A
C1083      H1102   1.085       .  S
C1084      C1085   1.414       .  A
C1084      C1096   1.444       .  S
C1085      C1086   1.409       .  A
C1086      H1101   1.084       .  S
C1087      C1088   1.410       .  A
C1087      C1092   1.414       .  A
C1088      C1089   1.414       .  A
C1088      H1103   1.084       .  S
C1089      C1090   1.418       .  A
C1089      C1093   1.444       .  S
C1090      C1091   1.408       .  A
C1091      C1092   1.396       .  A
C1091      H1104   1.085       .  S
C1092      C1094   1.445       .  S
C1093      N1097   1.158       .  T
C1094      N1098   1.158       .  T
C1095      N1100   1.157       .  T
C1096      N1099   1.157       .  T
C1105      C1106   1.415       .  A
C1105      C1110   1.409       .  A
C1105      C1119   1.443       .  S
C1106      C1107   1.405       .  A
C1106      C1111   1.501       .  S
C1107      C1108   1.404       .  A
C1107      H1126   1.085       .  S
C1108      C1109   1.411       .  A
C1108      C1120   1.443       .  S
C1109      C1110   1.406       .  A
C1110      H1125   1.084       .  S
C1111      C1112   1.407       .  A
C1111      C1116   1.413       .  A
C1112      C1113   1.409       .  A
C1112      H1127   1.085       .  S
C1113      C1114   1.413       .  A
C1113      C1117   1.442       .  S
C1114      C1115   1.407       .  A
C1115      C1116   1.407       .  A
C1115      H1128   1.085       .  S
C1116      C1118   1.443       .  S
C1117      N1121   1.157       .  T
C1118      N1122   1.157       .  T
C1119      N1124   1.157       .  T
C1120      N1123   1.157       .  T
C1129      C1130   1.416       .  A
C1129      C1134   1.401       .  A
C1129      C1143   1.444       .  S
C1130      C1131   1.404       .  A
C1130      C1135   1.490       .  S
C1131      C1132   1.399       .  A
C1131      H1150   1.085       .  S
C1132      C1133   1.409       .  A
C1132      C1144   1.443       .  S
C1133      C1134   1.400       .  A
C1134      H1149   1.084       .  S
C1135      C1136   1.407       .  A
C1135      C1140   1.413       .  A
C1136      C1137   1.403       .  A
C1136      H1151   1.085       .  S
C1137      C1138   1.409       .  A
C1137      C1141   1.444       .  S
C1138      C1139   1.400       .  A
C1139      C1140   1.397       .  A
C1139      H1152   1.085       .  S
C1140      C1142   1.445       .  S
C1141      N1145   1.157       .  T
C1142      N1146   1.157       .  T
C1143      N1148   1.157       .  T
C1144      N1147   1.157       .  T
C1153      C1154   1.413       .  A
C1153      C1158   1.409       .  A
C1153      C1167   1.443       .  S
C1154      C1155   1.406       .  A
C1154      C1159   1.501       .  S
C1155      C1156   1.404       .  A
C1155      H1174   1.085       .  S
C1156      C1157   1.413       .  A
C1156      C1168   1.443       .  S
C1157      C1158   1.408       .  A
C1158      H1173   1.084       .  S
C1159      C1160   1.408       .  A
C1159      C1164   1.410       .  A
C1160      C1161   1.411       .  A
C1160      H1175   1.084       .  S
C1161      C1162   1.417       .  A
C1161      C1165   1.443       .  S
C1162      C1163   1.411       .  A
C1163      C1164   1.400       .  A
C1163      H1176   1.085       .  S
C1164      C1166   1.445       .  S
C1165      N1169   1.157       .  T
C1166      N1170   1.157       .  T
C1167      N1172   1.157       .  T
C1168      N1171   1.157       .  T
C1177      C1178   1.412       .  A
C1177      C1182   1.403       .  A
C1177      C1191   1.444       .  S
C1178      C1179   1.404       .  A
C1178      C1183   1.496       .  S
C1179      C1180   1.408       .  A
C1179      H1198   1.084       .  S
C1180      C1181   1.417       .  A
C1180      C1192   1.443       .  S
C1181      C1182   1.407       .  A
C1182      H1197   1.084       .  S
C1183      C1184   1.406       .  A
C1183      C1188   1.408       .  A
C1184      C1185   1.412       .  A
C1184      H1199   1.084       .  S
C1185      C1186   1.419       .  A
C1185      C1189   1.443       .  S
C1186      C1187   1.412       .  A
C1187      C1188   1.398       .  A
C1187      H1200   1.084       .  S
C1188      C1190   1.445       .  S
C1189      N1193   1.157       .  T
C1190      N1194   1.157       .  T
C1191      N1196   1.157       .  T
C1192      N1195   1.157       .  T
C1201      C1202   1.410       .  A
C1201      C1206   1.403       .  A
C1201      C1215   1.444       .  S
C1202      C1203   1.409       .  A
C1202      C1207   1.501       .  S
C1203      C1204   1.412       .  A
C1203      H1222   1.084       .  S
C1204      C1205   1.413       .  A
C1204      C1216   1.442       .  S
C1205      C1206   1.410       .  A
C1206      H1221   1.085       .  S
C1207      C1208   1.408       .  A
C1207      C1212   1.410       .  A
C1208      C1209   1.408       .  A
C1208      H1223   1.085       .  S
C1209      C1210   1.414       .  A
C1209      C1213   1.444       .  S
C1210      C1211   1.407       .  A
C1211      C1212   1.406       .  A
C1211      H1224   1.083       .  S
C1212      C1214   1.442       .  S
C1213      N1217   1.157       .  T
C1214      N1218   1.157       .  T
C1215      N1220   1.157       .  T
C1216      N1219   1.157       .  T
C1225      C1226   1.416       .  A
C1225      C1230   1.408       .  A
C1225      C1239   1.443       .  S
C1226      C1227   1.408       .  A
C1226      C1231   1.505       .  S
C1227      C1228   1.406       .  A
C1227      H1246   1.084       .  S
C1228      C1229   1.410       .  A
C1228      C1240   1.443       .  S
C1229      C1230   1.404       .  A
C1230      H1245   1.084       .  S
C1231      C1232   1.407       .  A
C1231      C1236   1.417       .  A
C1232      C1233   1.407       .  A
C1232      H1247   1.084       .  S
C1233      C1234   1.413       .  A
C1233      C1237   1.445       .  S
C1234      C1235   1.404       .  A
C1235      C1236   1.409       .  A
C1235      H1248   1.085       .  S
C1236      C1238   1.444       .  S
C1237      N1241   1.157       .  T
C1238      N1242   1.157       .  T
C1239      N1244   1.157       .  T
C1240      N1243   1.157       .  T
C1249      C1250   1.414       .  A
C1249      C1254   1.405       .  A
C1249      C1263   1.444       .  S
C1250      C1251   1.407       .  A
C1250      C1255   1.501       .  S
C1251      C1252   1.407       .  A
C1251      H1270   1.085       .  S
C1252      C1253   1.414       .  A
C1252      C1264   1.443       .  S
C1253      C1254   1.407       .  A
C1254      H1269   1.084       .  S
C1255      C1256   1.401       .  A
C1255      C1260   1.417       .  A
C1256      C1257   1.401       .  A
C1256      H1271   1.085       .  S
C1257      C1258   1.419       .  A
C1257      C1261   1.445       .  S
C1258      C1259   1.408       .  A
C1259      C1260   1.412       .  A
C1259      H1272   1.084       .  S
C1260      C1262   1.444       .  S
C1261      N1265   1.157       .  T
C1262      N1266   1.157       .  T
C1263      N1268   1.157       .  T
C1264      N1267   1.157       .  T
C1273      C1274   1.416       .  A
C1273      C1278   1.405       .  A
C1273      C1287   1.444       .  S
C1274      C1275   1.406       .  A
C1274      C1279   1.501       .  S
C1275      C1276   1.407       .  A
C1275      H1294   1.084       .  S
C1276      C1277   1.415       .  A
C1276      C1288   1.443       .  S
C1277      C1278   1.404       .  A
C1278      H1293   1.085       .  S
C1279      C1280   1.405       .  A
C1279      C1284   1.415       .  A
C1280      C1281   1.405       .  A
C1280      H1295   1.085       .  S
C1281      C1282   1.416       .  A
C1281      C1285   1.445       .  S
C1282      C1283   1.405       .  A
C1283      C1284   1.408       .  A
C1283      H1296   1.085       .  S
C1284      C1286   1.443       .  S
C1285      N1289   1.158       .  T
C1286      N1290   1.157       .  T
C1287      N1292   1.157       .  T
C1288      N1291   1.157       .  T
C1297      C1298   1.413       .  A
C1297      C1302   1.405       .  A
C1297      C1311   1.444       .  S
C1298      C1299   1.403       .  A
C1298      C1303   1.494       .  S
C1299      C1300   1.407       .  A
C1299      H1318   1.084       .  S
C1300      C1301   1.414       .  A
C1300      C1312   1.443       .  S
C1301      C1302   1.403       .  A
C1302      H1317   1.085       .  S
C1303      C1304   1.403       .  A
C1303      C1308   1.412       .  A
C1304      C1305   1.406       .  A
C1304      H1319   1.085       .  S
C1305      C1306   1.415       .  A
C1305      C1309   1.444       .  S
C1306      C1307   1.404       .  A
C1307      C1308   1.407       .  A
C1307      H1320   1.083       .  S
C1308      C1310   1.444       .  S
C1309      N1313   1.157       .  T
C1310      N1314   1.157       .  T
C1311      N1316   1.157       .  T
C1312      N1315   1.157       .  T
C1321      C1322   1.413       .  A
C1321      C1326   1.409       .  A
C1321      C1335   1.442       .  S
C1322      C1323   1.407       .  A
C1322      C1327   1.505       .  S
C1323      C1324   1.410       .  A
C1323      H1342   1.084       .  S
C1324      C1325   1.414       .  A
C1324      C1336   1.443       .  S
C1325      C1326   1.405       .  A
C1326      H1341   1.084       .  S
C1327      C1328   1.400       .  A
C1327      C1332   1.414       .  A
C1328      C1329   1.406       .  A
C1328      H1343   1.085       .  S
C1329      C1330   1.425       .  A
C1329      C1333   1.445       .  S
C1330      C1331   1.412       .  A
C1331      C1332   1.415       .  A
C1331      H1344   1.084       .  S
C1332      C1334   1.443       .  S
C1333      N1337   1.157       .  T
C1334      N1338   1.157       .  T
C1335      N1340   1.157       .  T
C1336      N1339   1.157       .  T
C1345      C1346   1.419       .  A
C1345      C1350   1.416       .  A
C1345      C1359   1.442       .  S
C1346      C1347   1.399       .  A
C1346      C1351   1.503       .  S
C1347      C1348   1.396       .  A
C1347      H1366   1.085       .  S
C1348      C1349   1.420       .  A
C1348      C1360   1.446       .  S
C1349      C1350   1.406       .  A
C1350      H1365   1.084       .  S
C1351      C1352   1.408       .  A
C1351      C1356   1.416       .  A
C1352      C1353   1.408       .  A
C1352      H1367   1.084       .  S
C1353      C1354   1.413       .  A
C1353      C1357   1.443       .  S
C1354      C1355   1.405       .  A
C1355      C1356   1.402       .  A
C1355      H1368   1.084       .  S
C1356      C1358   1.444       .  S
C1357      N1361   1.157       .  T
C1358      N1362   1.157       .  T
C1359      N1364   1.157       .  T
C1360      N1363   1.157       .  T
C1369      C1370   1.415       .  A
C1369      C1374   1.412       .  A
C1369      C1383   1.443       .  S
C1370      C1371   1.403       .  A
C1370      C1375   1.502       .  S
C1371      C1372   1.403       .  A
C1371      H1390   1.085       .  S
C1372      C1373   1.416       .  A
C1372      C1384   1.445       .  S
C1373      C1374   1.408       .  A
C1374      H1389   1.085       .  S
C1375      C1376   1.404       .  A
C1375      C1380   1.416       .  A
C1376      C1377   1.407       .  A
C1376      H1391   1.084       .  S
C1377      C1378   1.414       .  A
C1377      C1381   1.442       .  S
C1378      C1379   1.404       .  A
C1379      C1380   1.408       .  A
C1379      H1392   1.084       .  S
C1380      C1382   1.444       .  S
C1381      N1385   1.157       .  T
C1382      N1386   1.157       .  T
C1383      N1388   1.157       .  T
C1384      N1387   1.157       .  T
C1393      C1394   1.413       .  A
C1393      C1398   1.403       .  A
C1393      C1407   1.444       .  S
C1394      C1395   1.409       .  A
C1394      C1399   1.504       .  S
C1395      C1396   1.412       .  A
C1395      H1414   1.085       .  S
C1396      C1397   1.413       .  A
C1396      C1408   1.441       .  S
C1397      C1398   1.407       .  A
C1398      H1413   1.085       .  S
C1399      C1400   1.407       .  A
C1399      C1404   1.415       .  A
C1400      C1401   1.407       .  A
C1400      H1415   1.085       .  S
C1401      C1402   1.413       .  A
C1401      C1405   1.443       .  S
C1402      C1403   1.405       .  A
C1403      C1404   1.408       .  A
C1403      H1416   1.084       .  S
C1404      C1406   1.443       .  S
C1405      N1409   1.157       .  T
C1406      N1410   1.157       .  T
C1407      N1412   1.157       .  T
C1408      N1411   1.156       .  T
C1417      C1418   1.414       .  A
C1417      C1422   1.406       .  A
C1417      C1431   1.443       .  S
C1418      C1419   1.410       .  A
C1418      C1423   1.506       .  S
C1419      C1420   1.404       .  A
C1419      H1438   1.084       .  S
C1420      C1421   1.412       .  A
C1420      C1432   1.443       .  S
C1421      C1422   1.408       .  A
C1422      H1437   1.083       .  S
C1423      C1424   1.411       .  A
C1423      C1428   1.415       .  A
C1424      C1425   1.409       .  A
C1424      H1439   1.083       .  S
C1425      C1426   1.411       .  A
C1425      C1429   1.442       .  S
C1426      C1427   1.406       .  A
C1427      C1428   1.400       .  A
C1427      H1440   1.085       .  S
C1428      C1430   1.445       .  S
C1429      N1433   1.157       .  T
C1430      N1434   1.157       .  T
C1431      N1436   1.157       .  T
C1432      N1435   1.157       .  T
