geometry optimzed in LAMMPS
_audit_creation_date              2020-11-30 
_audit_creation_method            'lammps2cif' 
_symmetry_space_group_name_H-M    'P1' 
_symmetry_Int_Tables_number       1 
_symmetry_cell_setting            triclinic 
loop_ 
_symmetry_equiv_pos_as_xyz 
  x,y,z 
_cell_length_a                    32.44547526908352 
_cell_length_b                    32.52649325673916 
_cell_length_c                    32.4371114121992 
_cell_angle_alpha                 90.06659939955263 
_cell_angle_beta                  90.20060287933781 
_cell_angle_gamma                 89.94143586625354 
loop_ 
_atom_site_label 
_atom_site_type_symbol 
_atom_site_fract_x 
_atom_site_fract_y 
_atom_site_fract_z 
_atom_site_charge 
C1          C  0.16945916  0.87454086  0.96164358     0.02820
C2          C  0.16903610  0.85340011  0.99859638    -0.13330
C3          C  0.16526389  0.87371240  0.03600928     0.00320
C4          C  0.16206915  0.91704626  0.03646223    -0.11850
C5          C  0.16391735  0.94048601  0.99920902     0.02810
C6          C  0.16794342  0.91782212  0.96164580    -0.11270
H7          H  0.17233886  0.82017101  0.99812594     0.08410
H8          H  0.15794744  0.93149032  0.06606615     0.05940
H9          H  0.16993187  0.93272324  0.93209674     0.05790
C10         C  0.64410219  0.05235952  0.96459088     0.02820
C11         C  0.64807313  0.07348373  0.00137095    -0.13330
C12         C  0.65532441  0.05314151  0.03798783     0.00320
C13         C  0.65980679  0.01023161  0.03847535    -0.11850
C14         C  0.65609945  0.98683366  0.00147046     0.02810
C15         C  0.64816992  0.00909354  0.96424472    -0.11270
H16         H  0.64608194  0.10683795  0.00153170     0.08410
H17         H  0.66695824  0.99615452  0.06771514     0.05940
H18         H  0.64481419  0.99371070  0.93496134     0.05790
C19         C  0.96653630  0.70738393  0.09105581     0.02820
C20         C  0.92907902  0.71106953  0.11092084    -0.13330
C21         C  0.89275606  0.71753920  0.08911923     0.00320
C22         C  0.89402763  0.72016543  0.04574621    -0.11850
C23         C  0.93170014  0.71447984  0.02393436     0.02810
C24         C  0.96811290  0.70792280  0.04773959    -0.11270
H25         H  0.92833798  0.70878042  0.14431224     0.08410
H26         H  0.86559009  0.72686705  0.02973654     0.05940
H27         H  0.99765173  0.70283051  0.03337778     0.05790
C28         C  0.96861833  0.20767424  0.90700571     0.02820
C29         C  0.93371361  0.22037275  0.88581422    -0.13330
C30         C  0.89990632  0.23675410  0.90618017     0.00320
C31         C  0.90012471  0.23835274  0.94977086    -0.11850
C32         C  0.93440095  0.22371950  0.97305821     0.02810
C33         C  0.96908139  0.20910109  0.95042446    -0.11270
H34         H  0.93328735  0.21809637  0.85248077     0.08410
H35         H  0.87333540  0.25096815  0.96478990     0.05940
H36         H  0.99654789  0.19814357  0.96571203     0.05790
C37         C  0.67118687  0.87411560  0.96583049     0.02820
C38         C  0.66632873  0.91719602  0.96483473    -0.13330
C39         C  0.66125785  0.94019472  0.00194235     0.00320
C40         C  0.66102120  0.91760278  0.03967625    -0.11850
C41         C  0.66807389  0.87491298  0.04003636     0.02810
C42         C  0.67279912  0.85392654  0.00331872    -0.11270
H43         H  0.66655185  0.93183410  0.93502871     0.08410
H44         H  0.65492824  0.93217768  0.06890214     0.05940
H45         H  0.67587333  0.82066255  0.00394210     0.05790
C46         C  0.15609565  0.05405305  0.96289349     0.02820
C47         C  0.15953556  0.01087011  0.96216338    -0.13330
C48         C  0.16121999  0.98759658  0.99951038     0.00320
C49         C  0.16141114  0.01053232  0.03715621    -0.11850
C50         C  0.15702369  0.05372820  0.03719415     0.02810
C51         C  0.15368919  0.07454950  0.00014440    -0.11270
H52         H  0.16148662  0.99660646  0.93226184     0.08410
H53         H  0.16570720  0.99589081  0.06664590     0.05940
H54         H  0.15268640  0.10794551  0.00021788     0.05790
C55         C  0.89785388  0.70969578  0.90980001     0.02820
C56         C  0.89644865  0.70902454  0.95314720    -0.13330
C57         C  0.93291624  0.71490686  0.97707820     0.00320
C58         C  0.97058671  0.72092196  0.95538361    -0.11850
C59         C  0.97176326  0.71909315  0.91197881     0.02810
C60         C  0.93544808  0.71287372  0.89009327    -0.11270
H61         H  0.86692331  0.70376464  0.96743420     0.08410
H62         H  0.99903496  0.72731038  0.97150692     0.05940
H63         H  0.93628387  0.71082314  0.85668398     0.05790
C64         C  0.89624102  0.22092725  0.08659877     0.02820
C65         C  0.89656090  0.22658146  0.04326744    -0.13330
C66         C  0.93374318  0.22213010  0.02011310     0.00320
C67         C  0.97074744  0.21611149  0.04296043    -0.11850
C68         C  0.96976964  0.20890589  0.08564570     0.02810
C69         C  0.93244256  0.20882990  0.10615418    -0.11270
H70         H  0.86805115  0.23492799  0.02839142     0.08410
H71         H  0.00058886  0.21790402  0.02846730     0.05940
H72         H  0.93241994  0.20346042  0.13918096     0.05790
C73         C  0.83521818  0.92588676  0.24794357     0.02820
C74         C  0.81513051  0.96327132  0.25151448    -0.13330
C75         C  0.83698993  0.99946177  0.25588670     0.00320
C76         C  0.88025065  0.99892465  0.25511171    -0.11850
C77         C  0.90227302  0.96144219  0.24942237     0.02810
C78         C  0.87859559  0.92460986  0.24610581    -0.11270
H79         H  0.78166811  0.96403883  0.25259555     0.08410
H80         H  0.89588342  0.02779048  0.25998171     0.05940
H81         H  0.89298509  0.89492368  0.24240290     0.05790
C82         C  0.01779970  0.93056923  0.74069975     0.02820
C83         C  0.03782909  0.96799514  0.74283424    -0.13330
C84         C  0.01640642  0.00478914  0.74512037     0.00320
C85         C  0.97278008  0.00428443  0.74252968    -0.11850
C86         C  0.95062929  0.96632615  0.73842523     0.02810
C87         C  0.97458919  0.92949081  0.73846844    -0.11270
H88         H  0.07130233  0.96843903  0.74278142     0.08410
H89         H  0.95710577  0.03348011  0.74372635     0.05940
H90         H  0.96087357  0.89947517  0.73655669     0.05790
C91         C  0.83582536  0.99868555  0.72560381     0.02820
C92         C  0.87889972  0.00107629  0.73177457    -0.13330
C93         C  0.90361892  0.96468375  0.73319851     0.00320
C94         C  0.88221324  0.92636285  0.72956307    -0.11850
C95         C  0.83960453  0.92502859  0.72157634     0.02810
C96         C  0.81755397  0.96107666  0.71803187    -0.11270
H97         H  0.89202449  0.03121568  0.73602042     0.08410
H98         H  0.89736926  0.89712683  0.73288434     0.05940
H99         H  0.78458574  0.95962745  0.71216442     0.05790
C100        C  0.01535476  0.99807824  0.24369085     0.02820
C101        C  0.03628237  0.96122559  0.24886374    -0.13330
C102        C  0.01539189  0.92438906  0.25277057     0.00320
C103        C  0.97204501  0.92399116  0.25356918    -0.11850
C104        C  0.94915011  0.96101139  0.24817916     0.02810
C105        C  0.97197419  0.99796258  0.24211776    -0.11270
H106        H  0.06972885  0.96110233  0.25034634     0.08410
H107        H  0.95706750  0.89487942  0.25883662     0.05940
H108        H  0.95683984  0.02689082  0.23609324     0.05790
C109        C  0.46154629  0.37133892  0.24912212     0.02820
C110        C  0.42418658  0.35115868  0.24736761    -0.13330
C111        C  0.38758947  0.37279407  0.24439406     0.00320
C112        C  0.38783830  0.41599940  0.24394860    -0.11850
C113        C  0.42556077  0.43831017  0.24675698     0.02810
C114        C  0.46267352  0.41458391  0.24879495    -0.11270
H115        H  0.42365835  0.31775401  0.24697033     0.08410
H116        H  0.35839231  0.43106248  0.24122517     0.05940
H117        H  0.49274864  0.42846913  0.24969461     0.05790
Fe118      Fe  0.63970426  0.17443519  0.24939371     1.65780
Fe119      Fe  0.67551026  0.25817191  0.20429111     1.73250
Fe120      Fe  0.72277103  0.21987306  0.28731924     1.54410
O121        O  0.67657252  0.22412404  0.33286742    -0.81980
O122        O  0.73848484  0.26461774  0.19907998    -0.80290
O123        O  0.64703448  0.16766595  0.31139055    -0.84490
O124        O  0.68728129  0.13213831  0.24051669    -0.79340
O125        O  0.72574363  0.28279114  0.28667958    -0.81120
O126        O  0.67809745  0.21146207  0.15952493    -0.83860
C127        C  0.71855315  0.12960933  0.26453570     0.96900
C128        C  0.64787616  0.19749753  0.33598685     1.04340
O129        O  0.68004101  0.21726278  0.24632867    -1.12840
O130        O  0.61232204  0.25609052  0.20411414    -0.75280
O131        O  0.59419885  0.21923863  0.25870742    -0.78760
O132        O  0.72594992  0.15645995  0.29207752    -0.79450
C133        C  0.58790067  0.24889511  0.23361885     0.95810
O134        O  0.62774774  0.17534240  0.18744263    -0.77410
O135        O  0.67161218  0.30338785  0.25054214    -0.82600
C136        C  0.76715357  0.23948941  0.20776363     0.98430
C137        C  0.69645066  0.30776225  0.28086861     1.04350
O138        O  0.76658402  0.21702638  0.24014076    -0.78250
C139        C  0.65278962  0.18138296  0.15837639     1.02650
C140        C  0.38450528  0.37835677  0.76982001     0.02820
C141        C  0.38715240  0.42157076  0.76870903    -0.13330
C142        C  0.42466466  0.44154268  0.75776039     0.00320
C143        C  0.45992307  0.41623664  0.75097333    -0.11850
C144        C  0.45663501  0.37297822  0.75265367     0.02810
C145        C  0.41888896  0.35495247  0.76036292    -0.11270
H146        H  0.36012526  0.43907588  0.77712358     0.08410
H147        H  0.48966156  0.42949315  0.74422756     0.05940
H148        H  0.41682147  0.32161901  0.76120259     0.05790
C149        C  0.52185232  0.20457824  0.52763493     0.02820
C150        C  0.54051843  0.20989804  0.48989081    -0.13330
C151        C  0.51772072  0.21096187  0.45387317     0.00320
C152        C  0.47448086  0.20685080  0.45537522    -0.11850
C153        C  0.45337611  0.20353035  0.49391852     0.02810
C154        C  0.47852866  0.20243045  0.53022729    -0.11270
H155        H  0.57393322  0.21171621  0.48837485     0.08410
H156        H  0.45843087  0.20604517  0.42627146     0.05940
H157        H  0.46555609  0.19967025  0.56061389     0.05790
Fe158      Fe  0.71978028  0.22105933  0.71046744     1.65780
Fe159      Fe  0.63248484  0.17135860  0.74255149     1.73250
Fe160      Fe  0.66792193  0.25667649  0.79418762     1.54420
O161        O  0.72820712  0.25602896  0.80963015    -0.81980
O162        O  0.58205547  0.21233889  0.74912425    -0.80290
O163        O  0.76356763  0.22690820  0.75869001    -0.84490
O164        O  0.71484474  0.28174915  0.70423232    -0.79340
O165        O  0.65967362  0.20954360  0.83812720    -0.81120
O166        O  0.62590753  0.18000481  0.68177071    -0.83860
C167        C  0.69441921  0.31064218  0.71951326     0.96900
C168        C  0.76109237  0.24162972  0.79520293     1.04340
O169        O  0.67349547  0.21612968  0.74922879    -1.12840
O170        O  0.67823911  0.12588631  0.73371605    -0.75280
O171        O  0.73194760  0.16087440  0.71038291    -0.78760
O172        O  0.67438412  0.30691819  0.75314783    -0.79450
C173        C  0.71507370  0.12762872  0.72001466     0.95810
O174        O  0.67938007  0.21662573  0.65915476    -0.77410
O175        O  0.63398460  0.15636340  0.80282723    -0.82600
C176        C  0.57840817  0.24711822  0.76705519     0.98430
C177        C  0.64681543  0.17244823  0.83572535     1.04350
O178        O  0.60756282  0.26392243  0.78600445    -0.78250
C179        C  0.64417723  0.19962151  0.65400358     1.02650
C180        C  0.67421281  0.42827650  0.40896307     0.02820
C181        C  0.67154767  0.46556078  0.38858079    -0.13330
C182        C  0.67202350  0.50239087  0.40996787     0.00320
C183        C  0.67399338  0.50216004  0.45338789    -0.11850
C184        C  0.67484324  0.46449161  0.47615986     0.02810
C185        C  0.67587986  0.42735663  0.45248689    -0.11270
H186        H  0.67138095  0.46596506  0.35508727     0.08410
H187        H  0.67520007  0.53173579  0.46823786     0.05940
H188        H  0.67844733  0.39761343  0.46686072     0.05790
C189        C  0.39037817  0.55248999  0.24531483     0.02820
C190        C  0.38909096  0.50915795  0.24607863    -0.13330
C191        C  0.42618845  0.48530751  0.24685197     0.00320
C192        C  0.46408369  0.50745115  0.24793300    -0.11850
C193        C  0.46467848  0.55061817  0.24735879     0.02810
C194        C  0.42805579  0.57232046  0.24525976    -0.11270
H195        H  0.35901525  0.49520879  0.24632611     0.08410
H196        H  0.49355641  0.49231788  0.24923666     0.05940
H197        H  0.42891571  0.60566140  0.24352727     0.05790
Fe198      Fe  0.71976285  0.71529574  0.28999550     1.65780
Fe199      Fe  0.63483221  0.75300710  0.24803450     1.73250
Fe200      Fe  0.67891018  0.67108301  0.20707784     1.54420
O201        O  0.74245048  0.66850986  0.20684399    -0.81980
O202        O  0.59294503  0.70531509  0.25656361    -0.80290
O203        O  0.76304318  0.72202377  0.24330693    -0.84490
O204        O  0.72701314  0.65228799  0.29093364    -0.79340
O205        O  0.68200763  0.71731976  0.16226328    -0.81120
O206        O  0.63773259  0.76134187  0.31067639    -0.83860
C207        C  0.69889988  0.62575215  0.28560920     0.96900
C208        C  0.76650420  0.69888267  0.21181142     1.04340
O209        O  0.67786092  0.71292956  0.24848340    -1.12840
O210        O  0.67960549  0.79824836  0.23935254    -0.75280
O211        O  0.71684814  0.77842494  0.29337463    -0.78760
O212        O  0.67530715  0.62731433  0.25404109    -0.79450
C213        C  0.70993579  0.80328104  0.26403578     0.95810
O214        O  0.67430173  0.70938006  0.33484923    -0.77410
O215        O  0.62672359  0.74905963  0.18553231    -0.82600
C216        C  0.59041790  0.67398666  0.23294957     0.98430
C217        C  0.65541754  0.74616525  0.15952667     1.04350
O218        O  0.61546752  0.66933543  0.20329253    -0.78250
C219        C  0.64367749  0.73385257  0.33756155     1.02650
C220        C  0.52118454  0.72338086  0.53595410     0.02820
C221        C  0.54188976  0.71907811  0.49911890    -0.13330
C222        C  0.52064723  0.71587877  0.46228590     0.00320
C223        C  0.47729609  0.71683958  0.46192191    -0.11850
C224        C  0.45452376  0.72034990  0.49933364     0.02810
C225        C  0.47788125  0.72390858  0.53656760    -0.11270
H226        H  0.57538524  0.71917286  0.49904791     0.08410
H227        H  0.46248872  0.71473872  0.43223758     0.05940
H228        H  0.46363252  0.72723062  0.56630046     0.05790
C229        C  0.67703722  0.42742731  0.59040377     0.02820
C230        C  0.67607982  0.42663893  0.54682428    -0.13330
C231        C  0.67555758  0.46416716  0.52356475     0.00320
C232        C  0.67533723  0.50165134  0.54681721    -0.11850
C233        C  0.67676811  0.50125013  0.59024101     0.02810
C234        C  0.67879813  0.46438026  0.61086106    -0.11270
H235        H  0.67564698  0.39690267  0.53216628     0.08410
H236        H  0.67405252  0.53139669  0.53239498     0.05940
H237        H  0.68163813  0.46436441  0.64429394     0.05790
C238        C  0.46466168  0.55365180  0.75522048     0.02820
C239        C  0.42791084  0.57484790  0.75057408    -0.13330
C240        C  0.39052077  0.55451703  0.74614225     0.00320
C241        C  0.38998862  0.51120617  0.74655452    -0.11850
C242        C  0.42655056  0.48811978  0.75413588     0.02810
C243        C  0.46424306  0.51033365  0.75829328    -0.11270
H244        H  0.42858915  0.60822264  0.75099810     0.08410
H245        H  0.36093224  0.49596077  0.74093195     0.05940
H246        H  0.49300808  0.49464205  0.76429582     0.05790
Fe247      Fe  0.72188211  0.70786020  0.71064904     1.65780
Fe248      Fe  0.67869693  0.67025411  0.79511486     1.73250
Fe249      Fe  0.63967494  0.75336474  0.75036489     1.54410
O250        O  0.68723237  0.79691916  0.75405815    -0.81980
O251        O  0.61554128  0.67242263  0.80008616    -0.80290
O252        O  0.72316696  0.77044786  0.70218957    -0.84490
O253        O  0.67515058  0.70223968  0.66597503    -0.79340
O254        O  0.63390943  0.75506929  0.81346416    -0.81120
O255        O  0.67213911  0.62496354  0.74980732    -0.83860
C256        C  0.64578256  0.72817256  0.66157201     0.96900
C257        C  0.71718683  0.79854691  0.72857226     1.04340
O258        O  0.68029463  0.71077876  0.75227157    -1.12840
O259        O  0.74178473  0.66325564  0.79575659    -0.75280
O260        O  0.76660508  0.71346875  0.75686785    -0.78760
O261        O  0.64049600  0.75711318  0.68713641    -0.79450
C262        C  0.76947736  0.68954890  0.78803937     0.95810
O263        O  0.72636858  0.64510841  0.71468840    -0.77410
O264        O  0.68482010  0.71721666  0.83860474    -0.82600
C265        C  0.58938039  0.67850660  0.77170482     0.98430
C266        C  0.66129284  0.74860735  0.84068927     1.04350
O267        O  0.59377906  0.70799836  0.74605392    -0.78250
C268        C  0.69663957  0.62053292  0.71948094     1.02650
C269        C  0.34156624  0.72018423  0.53706314     0.02820
C270        C  0.38482585  0.72116556  0.53719165    -0.13330
C271        C  0.40744146  0.71998469  0.49956374     0.00320
C272        C  0.38392841  0.71849548  0.46225012    -0.11850
C273        C  0.34059123  0.71625674  0.46308240     0.02810
C274        C  0.32014726  0.71699520  0.50035404    -0.11270
H275        H  0.39961332  0.72300251  0.56688822     0.08410
H276        H  0.39814125  0.71925886  0.43231426     0.05940
H277        H  0.28665646  0.71673813  0.50074473     0.05790
C278        C  0.18042282  0.49703263  0.59237829     0.02820
C279        C  0.17317870  0.45993870  0.61196168    -0.13330
C280        C  0.17105482  0.42357876  0.59003058     0.00320
C281        C  0.17479018  0.42374378  0.54697527    -0.11850
C282        C  0.18068441  0.46113013  0.52488351     0.02810
C283        C  0.18353276  0.49797911  0.54891291    -0.11270
H284        H  0.16909398  0.45922287  0.64516801     0.08410
H285        H  0.17253354  0.39435089  0.53190638     0.05940
H286        H  0.18821409  0.52761523  0.53492970     0.05790
Fe287      Fe  0.22062951  0.75883112  0.74658962     1.65780
Fe288      Fe  0.13739869  0.71695994  0.70521731     1.73250
Fe289      Fe  0.17936503  0.67544034  0.78851610     1.54420
O290        O  0.24269209  0.67627443  0.79303322    -0.81980
O291        O  0.09416382  0.72471908  0.75225242    -0.80290
O292        O  0.26442916  0.71239417  0.73987755    -0.84490
O293        O  0.22662287  0.75839845  0.80997291    -0.79340
O294        O  0.18427805  0.63092222  0.74227370    -0.81120
O295        O  0.13911417  0.77999433  0.69883693    -0.83860
C296        C  0.19817316  0.75254584  0.83599621     0.96900
C297        C  0.26711730  0.68076767  0.76290883     1.04340
O298        O  0.17920464  0.71703952  0.74683877    -1.12840
O299        O  0.18398916  0.70991122  0.66114537    -0.75280
O300        O  0.21890186  0.76406074  0.68338348    -0.78760
O301        O  0.17420054  0.72159816  0.83285010    -0.79450
C302        C  0.21459685  0.73446960  0.65829069     0.95810
O303        O  0.17422282  0.80277417  0.75254077    -0.77410
O304        O  0.13080382  0.65380196  0.70703234    -0.82600
C305        C  0.09214502  0.70187482  0.78414429     0.98430
C306        C  0.15945987  0.62779252  0.71176951     1.04350
O307        O  0.11606533  0.67119849  0.78767082    -0.78250
C308        C  0.14360256  0.80569202  0.72794951     1.02650
C309        C  0.34168657  0.19269523  0.53589758     0.02820
C310        C  0.38513717  0.19443702  0.53427596    -0.13330
C311        C  0.40618061  0.20113011  0.49616731     0.00320
C312        C  0.38099286  0.20548668  0.46018325    -0.11850
C313        C  0.33763766  0.20473233  0.46273117     0.02810
C314        C  0.31883275  0.19907107  0.50041947    -0.11270
H315        H  0.40148936  0.18995486  0.56287318     0.08410
H316        H  0.39396046  0.20972558  0.42997401     0.05940
H317        H  0.28539800  0.19836092  0.50195894     0.05790
Fe318      Fe  0.14153386  0.20578638  0.70649677     1.65780
Fe319      Fe  0.16875331  0.25550716  0.79155402     1.73250
Fe320      Fe  0.22250910  0.17430799  0.76107372     1.54410
O321        O  0.17786198  0.12701323  0.76338212    -0.81980
O322        O  0.22986612  0.26102096  0.80768743    -0.80290
O323        O  0.15007870  0.14358904  0.70428762    -0.84490
O324        O  0.19147045  0.21245062  0.66634222    -0.79340
O325        O  0.21840699  0.17815421  0.82401729    -0.81120
O326        O  0.17708978  0.29768430  0.74417839    -0.83860
C327        C  0.22440826  0.19070027  0.66796577     0.96900
C328        C  0.14962225  0.12184848  0.73639025     1.04340
O329        O  0.17899879  0.21287606  0.75203197    -1.12840
O330        O  0.10733636  0.25546238  0.77828945    -0.75280
O331        O  0.09369880  0.19660260  0.74988779    -0.78760
O332        O  0.23277889  0.16725497  0.69828281    -0.79450
C333        C  0.08783486  0.22224481  0.77906607     0.95810
O334        O  0.13069290  0.26847392  0.70238948    -0.77410
O335        O  0.15974576  0.21012398  0.83657083    -0.82600
C336        C  0.26054964  0.25549154  0.78433310     0.98430
C337        C  0.18573629  0.18181719  0.84480133     1.04350
O338        O  0.26372519  0.22383403  0.76102786    -0.78250
C339        C  0.15525807  0.29766490  0.71126629     1.02650
C340        C  0.18629889  0.49900501  0.41153338     0.02820
C341        C  0.18600370  0.49890536  0.45504354    -0.13330
C342        C  0.18306191  0.46145318  0.47773913     0.00320
C343        C  0.18127303  0.42427410  0.45426499    -0.11850
C344        C  0.18204866  0.42486002  0.41095944     0.02810
C345        C  0.18434459  0.46193000  0.39031666    -0.11560
H346        H  0.18754871  0.52833900  0.47017817     0.08410
H347        H  0.17900700  0.39446745  0.46840787     0.05940
H348        H  0.18333766  0.46185586  0.35684993     0.05790
Fe349      Fe  0.21874760  0.75613254  0.24849946     1.65780
Fe350      Fe  0.17840801  0.67136725  0.20896013     1.73250
Fe351      Fe  0.13791800  0.71238354  0.29314259     1.54420
O352        O  0.18526181  0.70935841  0.33654880    -0.81980
O353        O  0.11565109  0.66254433  0.21256768    -0.80290
O354        O  0.22082373  0.76191373  0.31171286    -0.84490
O355        O  0.17116506  0.79914830  0.24455922    -0.79340
O356        O  0.13573191  0.64902285  0.29304403    -0.81120
O357        O  0.16799011  0.71726093  0.16500303    -0.83860
C358        C  0.14125075  0.80188455  0.26989447     0.96900
C359        C  0.21542879  0.73443892  0.33883063     1.04340
O360        O  0.17832963  0.71344432  0.25034887    -1.12840
O361        O  0.24120871  0.67518290  0.20038976    -0.75280
O362        O  0.26455497  0.71106746  0.25303352    -0.78760
O363        O  0.13583596  0.77545932  0.29803440    -0.79450
C364        C  0.26741671  0.68015546  0.22900436     0.95810
O365        O  0.22089402  0.75506003  0.18489763    -0.77410
O366        O  0.18866766  0.62836726  0.25577395    -0.82600
C367        C  0.08888612  0.69034917  0.21807775     0.98430
C368        C  0.16608904  0.62496262  0.28775593     1.04350
O369        O  0.09216026  0.71579383  0.24786457    -0.78250
C370        C  0.19034848  0.74929120  0.16101807     1.02650
Fe371      Fe  0.21765253  0.17031613  0.24647856     1.65780
Fe372      Fe  0.13499026  0.20980801  0.29177449     1.73250
Fe373      Fe  0.17482038  0.25449337  0.20899666     1.54420
O374        O  0.23772416  0.25302348  0.20077910    -0.81980
O375        O  0.09015137  0.20609448  0.24556147    -0.80290
O376        O  0.26202343  0.21642676  0.25288002    -0.84490
O377        O  0.22099607  0.17405671  0.18325842    -0.79340
O378        O  0.18264966  0.29704619  0.25647933    -0.81120
O379        O  0.13535444  0.14650997  0.29349156    -0.83860
C380        C  0.19042363  0.17846729  0.15937807     0.96900
C381        C  0.26418397  0.24762974  0.22910323     1.04340
O382        O  0.17624442  0.21194149  0.24971493    -1.12840
O383        O  0.18133387  0.21238670  0.33630086    -0.75280
O384        O  0.21889686  0.16209344  0.30955219    -0.78760
O385        O  0.16621238  0.20913628  0.16387994    -0.79450
C386        C  0.21209013  0.18791643  0.33806780     0.95810
O387        O  0.17098665  0.12676325  0.23918816    -0.77410
O388        O  0.13102097  0.27327584  0.29478736    -0.82600
C389        C  0.08726465  0.23152699  0.21585834     0.98430
C390        C  0.15899692  0.29972189  0.28783043     1.04350
O391        O  0.11221118  0.26112339  0.21326460    -0.78250
C392        C  0.13979269  0.12294485  0.26264341     1.02650
C393        C  0.21390358  0.53880618  0.35268269    -0.09460
C394        C  0.18625361  0.53682615  0.38594575     0.06730
C395        C  0.15355966  0.56516243  0.38748839    -0.03230
C396        C  0.14828009  0.59348514  0.35549893    -0.07680
C397        C  0.17427324  0.59378156  0.32059188     0.05850
C398        C  0.20775348  0.56598535  0.31983305    -0.02710
Br399      Br  0.24446645  0.56019372  0.27412251    -0.02400
H400        H  0.23886672  0.51671533  0.35077230     0.09760
H401        H  0.12254076  0.61458787  0.35759739     0.07780
Br402      Br  0.11246551  0.56397669  0.42993008    -0.02830
C403        C  0.13708019  0.37716013  0.37259271    -0.09460
C404        C  0.17703840  0.38785379  0.38505563     0.06730
C405        C  0.21096541  0.37081892  0.36407822    -0.03230
C406        C  0.20458901  0.34337525  0.33134549    -0.07680
C407        C  0.16453690  0.33279850  0.31867181     0.05850
C408        C  0.13055861  0.35007004  0.33970365    -0.02710
Br409      Br  0.07452614  0.34063938  0.32280109    -0.02400
H410        H  0.11080451  0.39175281  0.38708852     0.09760
H411        H  0.23101687  0.32987688  0.31610845     0.07780
Br412      Br  0.26644393  0.38552459  0.37826406    -0.02830
C413        C  0.31742233  0.21869705  0.60317546    -0.09460
C414        C  0.31763447  0.18695660  0.57413319     0.06730
C415        C  0.28716574  0.15594502  0.57661402    -0.03230
C416        C  0.25615500  0.15834781  0.60647181    -0.07680
C417        C  0.25470781  0.19140877  0.63412083     0.05850
C418        C  0.28657362  0.22086534  0.63310462    -0.02710
Br419      Br  0.29019018  0.26446277  0.67201771    -0.02400
H420        H  0.34017550  0.24299203  0.60134788     0.09760
H421        H  0.23309073  0.13434148  0.60809797     0.07780
Br422      Br  0.28608289  0.11028334  0.53903928    -0.02830
C423        C  0.24542827  0.22714976  0.39529150    -0.09460
C424        C  0.24265943  0.19058974  0.37224451     0.06730
C425        C  0.27336921  0.15996784  0.37818609    -0.03230
C426        C  0.30662261  0.16730893  0.40465832    -0.07680
C427        C  0.30983194  0.20413146  0.42664881     0.05850
C428        C  0.27866799  0.23408865  0.42208496    -0.02710
Br429      Br  0.28062498  0.28515529  0.45171347    -0.02400
H430        H  0.22275355  0.25128217  0.39114796     0.09760
H431        H  0.32888104  0.14301637  0.41007856     0.07780
Br432      Br  0.27088735  0.10592936  0.35411651    -0.02830
C433        C  0.19571474  0.56511380  0.68588463    -0.09460
C434        C  0.16426240  0.59440758  0.68045878     0.06730
C435        C  0.14147455  0.59372642  0.64275766    -0.03230
C436        C  0.14959780  0.56367765  0.61292386    -0.07680
C437        C  0.18033372  0.53419225  0.61897382     0.05850
C438        C  0.20435421  0.53589736  0.65539888    -0.02710
Br439      Br  0.25005608  0.49939383  0.66469840    -0.02400
H440        H  0.21465919  0.56560094  0.71344790     0.09760
H441        H  0.13058419  0.56232722  0.58541863     0.07780
Br442      Br  0.09884376  0.63233032  0.62826318    -0.02830
C443        C  0.12742904  0.37902258  0.63303906    -0.09460
C444        C  0.16581416  0.38602738  0.61454069     0.06730
C445        C  0.20066318  0.36463737  0.62889115    -0.03230
C446        C  0.19695332  0.33748265  0.66198687    -0.07680
C447        C  0.15880117  0.33091034  0.68093837     0.05850
C448        C  0.12364083  0.35138052  0.66575778    -0.02710
Br449      Br  0.07041586  0.34450117  0.69042856    -0.02400
H450        H  0.10075316  0.39659654  0.62324449     0.09760
H451        H  0.22377072  0.32090038  0.67244220     0.07780
Br452      Br  0.25413702  0.37319077  0.60536349    -0.02830
C453        C  0.30762826  0.75655625  0.40813124    -0.09460
C454        C  0.31417574  0.71806521  0.42611730     0.06730
C455        C  0.28679698  0.68564660  0.41696956    -0.03230
C456        C  0.25364320  0.69203878  0.39003117    -0.07680
C457        C  0.24688666  0.73068692  0.37189116     0.05850
C458        C  0.27425788  0.76333643  0.38164902    -0.02710
Br459      Br  0.26660364  0.81892487  0.36292539    -0.02400
H460        H  0.32709845  0.78221639  0.41685269     0.09760
H461        H  0.23367889  0.66638043  0.38256897     0.07780
Br462      Br  0.29313894  0.63231322  0.44142269    -0.02830
C463        C  0.29706335  0.68843216  0.58902273    -0.09460
C464        C  0.31618072  0.72393964  0.57420452     0.06730
C465        C  0.30119562  0.76263778  0.58628370    -0.03230
C466        C  0.26708111  0.76528300  0.61232496    -0.07680
C467        C  0.24702607  0.72968771  0.62659468     0.05850
C468        C  0.26308639  0.69098933  0.61521395    -0.02710
Br469      Br  0.24278284  0.64048426  0.63637677    -0.02400
H470        H  0.30784173  0.65851097  0.57897637     0.09760
H471        H  0.25601874  0.79542963  0.62127296     0.07780
Br472      Br  0.32479441  0.81256187  0.56563477    -0.02830
C473        C  0.54186303  0.63592343  0.72881092    -0.09460
C474        C  0.55525905  0.64824031  0.76809256     0.06730
C475        C  0.54073430  0.62633058  0.80290504    -0.03230
C476        C  0.51458667  0.59242576  0.79781498    -0.07680
C477        C  0.50190125  0.57971362  0.75852623     0.05850
C478        C  0.51557478  0.60205947  0.72387230    -0.02710
Br479      Br  0.49799463  0.58787932  0.66914942    -0.02400
H480        H  0.55261434  0.65205358  0.70175999     0.09760
H481        H  0.50210940  0.57738883  0.82482094     0.07780
Br482      Br  0.55244953  0.64323337  0.85853070    -0.02830
C483        C  0.35431749  0.61567501  0.71792141    -0.09460
C484        C  0.35305635  0.58078000  0.74362179     0.06730
C485        C  0.32154892  0.57803855  0.77317216    -0.03230
C486        C  0.29386578  0.61060979  0.77795024    -0.07680
C487        C  0.29737941  0.64722489  0.75485081     0.05850
C488        C  0.32797231  0.64918971  0.72405083    -0.02710
Br489      Br  0.33911976  0.69758203  0.69214107    -0.02400
H490        H  0.37853589  0.61838339  0.69515290     0.09760
H491        H  0.27021887  0.60757171  0.80122163     0.07780
Br492      Br  0.31718920  0.53310504  0.81126853    -0.02830
C493        C  0.64909993  0.53882490  0.64999950    -0.09460
C494        C  0.67753114  0.53781984  0.61722930     0.06730
C495        C  0.71275739  0.56262998  0.61952854    -0.03230
C496        C  0.71872355  0.58807942  0.65370411    -0.07680
C497        C  0.69076764  0.58862001  0.68710880     0.05850
C498        C  0.65614154  0.56245325  0.68534108    -0.02710
Br499      Br  0.61717488  0.55673619  0.72933150    -0.02400
H500        H  0.62270254  0.51841661  0.64938588     0.09760
H501        H  0.74597348  0.60726704  0.65410369     0.07780
Br502      Br  0.75575599  0.55977777  0.57910902    -0.02830
C503        C  0.59972286  0.76301637  0.61131950    -0.09460
C504        C  0.61549613  0.72595463  0.62735823     0.06730
C505        C  0.59639496  0.68883334  0.61571401    -0.03230
C506        C  0.56251035  0.68906074  0.58908042    -0.07680
C507        C  0.54722984  0.72590380  0.57296463     0.05850
C508        C  0.56635439  0.76314034  0.58389908    -0.02710
Br509      Br  0.54920095  0.81447628  0.56032380    -0.02400
H510        H  0.61351153  0.79208142  0.62009171     0.09760
H511        H  0.54914122  0.66009873  0.57930151     0.07780
Br512      Br  0.61397775  0.63684055  0.63539841    -0.02830
C513        C  0.60669354  0.69123357  0.38915604    -0.09460
C514        C  0.61259249  0.72975747  0.37055956     0.06730
C515        C  0.58466901  0.76210684  0.37978515    -0.03230
C516        C  0.55162171  0.75515078  0.40623020    -0.07680
C517        C  0.54608838  0.71692753  0.42493909     0.05850
C518        C  0.57393285  0.68477483  0.41631362    -0.02710
Br519      Br  0.56875846  0.63187912  0.44185945    -0.02400
H520        H  0.62708466  0.66581796  0.38202107     0.09760
H521        H  0.53173936  0.78062472  0.41456477     0.07780
Br522      Br  0.59102892  0.81768098  0.36049698    -0.02830
C523        C  0.35023766  0.60993165  0.27491209    -0.09460
C524        C  0.35368993  0.57960425  0.24417927     0.06730
C525        C  0.32955189  0.58324793  0.20837569    -0.03230
C526        C  0.30279442  0.61675264  0.20379742    -0.07680
C527        C  0.29975073  0.64782470  0.23418374     0.05850
C528        C  0.32441888  0.64407145  0.27000616    -0.02710
Br529      Br  0.32677523  0.68472109  0.31272232    -0.02400
H530        H  0.36989091  0.60826928  0.30195723     0.09760
H531        H  0.28442967  0.61846623  0.17591397     0.07780
Br532      Br  0.33403755  0.54484574  0.16368320    -0.02830
C533        C  0.50615443  0.60602219  0.27849945    -0.09460
C534        C  0.50268938  0.57544433  0.24806579     0.06730
C535        C  0.52878269  0.57684267  0.21373192    -0.03230
C536        C  0.55692040  0.60904202  0.20983526    -0.07680
C537        C  0.55903218  0.64121291  0.23911734     0.05850
C538        C  0.53310599  0.63915170  0.27397277    -0.02710
Br539      Br  0.52970837  0.68125445  0.31516850    -0.02400
H540        H  0.48526508  0.60575357  0.30451307     0.09760
H541        H  0.57635102  0.60937659  0.18276625     0.07780
Br542      Br  0.52420979  0.53820781  0.16916604    -0.02830
C543        C  0.71525293  0.55673067  0.37951987    -0.09460
C544        C  0.67588604  0.53996295  0.38457360     0.06730
C545        C  0.64432870  0.55137029  0.35683941    -0.03230
C546        C  0.65264894  0.57843601  0.32434106    -0.07680
C547        C  0.69245701  0.59438002  0.31834997     0.05850
C548        C  0.72390917  0.58341249  0.34682325    -0.02710
Br549      Br  0.78033261  0.60051632  0.34139069    -0.02400
H550        H  0.74015336  0.54679848  0.39953213     0.09760
H551        H  0.62774621  0.58712909  0.30376682     0.07780
Br552      Br  0.58970853  0.52931218  0.36135498    -0.02830
C553        C  0.71827394  0.37738963  0.62887370    -0.09460
C554        C  0.67895926  0.39162941  0.61822654     0.06730
C555        C  0.64617064  0.38487561  0.64608057    -0.03230
C556        C  0.65275565  0.36317528  0.68290834    -0.07680
C557        C  0.69168776  0.34706806  0.69238560     0.05850
C558        C  0.72495575  0.35600383  0.66563834    -0.02710
Br559      Br  0.78070426  0.34028338  0.67843492    -0.02400
H560        H  0.74444394  0.38536054  0.60981517     0.09760
H561        H  0.62674245  0.35644618  0.70263633     0.07780
Br562      Br  0.59199865  0.40621920  0.63536375    -0.02830
C563        C  0.55973799  0.23726656  0.58502946    -0.09460
C564        C  0.55023980  0.20147904  0.56307426     0.06730
C565        C  0.57603918  0.16677372  0.56737930    -0.03230
C566        C  0.61016155  0.16812584  0.59389618    -0.07680
C567        C  0.61968092  0.20396684  0.61607693     0.05850
C568        C  0.59379795  0.23848854  0.61154733    -0.02710
Br569      Br  0.60158558  0.28683507  0.64370820    -0.02400
H570        H  0.54103336  0.26459227  0.58093549     0.09760
H571        H  0.62823980  0.14049833  0.59869788     0.07780
Br572      Br  0.56560191  0.11685300  0.53753592    -0.02830
C573        C  0.35048313  0.32435023  0.81125929    -0.09460
C574        C  0.34697516  0.35494150  0.78061034     0.06730
C575        C  0.31276883  0.35415768  0.75391626    -0.03230
C576        C  0.28468295  0.32166695  0.75630430    -0.07680
C577        C  0.29118606  0.28867413  0.78343027     0.05850
C578        C  0.32308264  0.29120058  0.81256866    -0.02710
Br579      Br  0.33093463  0.24951591  0.85359602    -0.02400
H580        H  0.37660719  0.32459256  0.83216972     0.09760
H581        H  0.25829724  0.32146017  0.73590273     0.07780
Br582      Br  0.30537685  0.39401855  0.71099888    -0.02830
C583        C  0.50722231  0.33385679  0.79249448    -0.09460
C584        C  0.49185647  0.34426825  0.75350401     0.06730
C585        C  0.49978072  0.31768976  0.72002523    -0.03230
C586        C  0.52454150  0.28260980  0.72549543    -0.07680
C587        C  0.54111609  0.27308105  0.76435212     0.05850
C588        C  0.53089841  0.29850505  0.79826944    -0.02710
Br589      Br  0.54846907  0.28612941  0.85360306    -0.02400
H590        H  0.49885109  0.35223528  0.81908951     0.09760
H591        H  0.53221493  0.26378437  0.69907368     0.07780
Br592      Br  0.47677014  0.32813214  0.66657173    -0.02830
C593        C  0.71874740  0.38190454  0.36871778    -0.09460
C594        C  0.67895526  0.39179272  0.38211698     0.06730
C595        C  0.64490739  0.37613111  0.36008098    -0.03230
C596        C  0.65089289  0.35021918  0.32595910    -0.07680
C597        C  0.69081732  0.34039304  0.31240634     0.05850
C598        C  0.72494713  0.35694021  0.33411186    -0.02710
Br599      Br  0.78085397  0.34954910  0.31605983    -0.02400
H600        H  0.74515573  0.39589992  0.38369302     0.09760
H601        H  0.62428399  0.33743167  0.31028318     0.07780
Br602      Br  0.58987675  0.39183441  0.37435367    -0.02830
C603        C  0.60227019  0.24020078  0.38106210    -0.09460
C604        C  0.61318321  0.20133325  0.36561816     0.06730
C605        C  0.58727459  0.16729633  0.37482309    -0.03230
C606        C  0.55208059  0.17270028  0.39891148    -0.07680
C607        C  0.54235860  0.21101658  0.41572774     0.05850
C608        C  0.56757985  0.24503367  0.40630852    -0.02710
Br609      Br  0.55752249  0.29781001  0.43062494    -0.02400
H610        H  0.62091523  0.26684278  0.37387309     0.09760
H611        H  0.53427889  0.14596460  0.40778797     0.07780
Br612      Br  0.59943379  0.11137002  0.35950588    -0.02830
C613        C  0.30612873  0.30425765  0.19939889    -0.09460
C614        C  0.29639012  0.27969042  0.23381577     0.06730
C615        C  0.31372862  0.29014471  0.27236008    -0.03230
C616        C  0.33959434  0.32419154  0.27594447    -0.07680
C617        C  0.35005869  0.34773160  0.24145055     0.05850
C618        C  0.33320371  0.33752595  0.20284253    -0.02710
Br619      Br  0.34909580  0.36590066  0.15358287    -0.02400
H620        H  0.29329796  0.29707904  0.16936689     0.09760
H621        H  0.35391322  0.33081997  0.30546232     0.07780
Br622      Br  0.30480842  0.25938742  0.32137776    -0.02830
C623        C  0.50916589  0.33037415  0.20751367    -0.09460
C624        C  0.49837381  0.34494635  0.24660190     0.06730
C625        C  0.51415887  0.32495876  0.28180025    -0.03230
C626        C  0.54193031  0.29211413  0.27748444    -0.07680
C627        C  0.55300215  0.27775622  0.23817443     0.05850
C628        C  0.53546591  0.29676139  0.20301217    -0.02710
Br629      Br  0.54362325  0.27638175  0.14792167    -0.02400
H630        H  0.49492985  0.34366748  0.18033139     0.09760
H631        H  0.55523440  0.27819380  0.30479418     0.07780
Br632      Br  0.49645568  0.34020882  0.33598085    -0.02830
C633        C  0.09522364  0.84496195  0.22659174    -0.09460
C634        C  0.10988367  0.83456778  0.26597526     0.06730
C635        C  0.08994354  0.85108138  0.30100254    -0.03230
C636        C  0.05590017  0.87705056  0.29614293    -0.07680
C637        C  0.04140163  0.88749070  0.25681551     0.05850
C638        C  0.06157211  0.87150357  0.22188039    -0.02710
Br639      Br  0.04580949  0.88763675  0.16720161    -0.02400
H640        H  0.10971246  0.83213399  0.19939554     0.09760
H641        H  0.04225814  0.89122123  0.32310455     0.07780
Br642      Br  0.10995703  0.84226418  0.35613166    -0.02830
C643        C  0.07513531  0.03617352  0.21577150    -0.09460
C644        C  0.04095573  0.03579098  0.24234308     0.06730
C645        C  0.03863746  0.06552006  0.27372296    -0.03230
C646        C  0.07085625  0.09354432  0.27904009    -0.07680
C647        C  0.10668321  0.09214980  0.25440895     0.05850
C648        C  0.10818172  0.06308682  0.22202435    -0.02710
Br649      Br  0.15534935  0.05486641  0.18758317    -0.02400
H650        H  0.07763396  0.01293262  0.19192682     0.09760
H651        H  0.06817060  0.11578707  0.30375048     0.07780
Br652      Br  0.99469585  0.06655291  0.31322949    -0.02830
C653        C  0.80253124  0.87166517  0.76035909    -0.09460
C654        C  0.81465148  0.88721309  0.72196619     0.06730
C655        C  0.79282435  0.87513783  0.68635391    -0.03230
C656        C  0.75985392  0.84776713  0.68954908    -0.07680
C657        C  0.74708800  0.83274406  0.72805955     0.05850
C658        C  0.76891176  0.84490800  0.76365709    -0.02710
Br659      Br  0.75484117  0.82557326  0.81733978    -0.02400
H660        H  0.81790026  0.88216835  0.78815132     0.09760
H661        H  0.74396503  0.83817910  0.66171360     0.07780
Br662      Br  0.80564165  0.89704283  0.63297940    -0.02830
C663        C  0.80810546  0.06238780  0.69457876    -0.09460
C664        C  0.80739697  0.03412339  0.72690677     0.06730
C665        C  0.77312596  0.03369134  0.75383359    -0.03230
C666        C  0.74060178  0.06134469  0.74820119    -0.07680
C667        C  0.74233725  0.09122676  0.71736008     0.05850
C668        C  0.77601831  0.09063766  0.68943911    -0.02710
Br669      Br  0.77912672  0.12613308  0.64211792    -0.02400
H670        H  0.83285935  0.06136447  0.67225468     0.09760
H671        H  0.71476147  0.06057464  0.76915563     0.07780
Br672      Br  0.76941579  0.99590519  0.79917697    -0.02830
C673        C  0.07464742  0.89028875  0.77153228    -0.09460
C674        C  0.04445075  0.89360747  0.74050353     0.06730
C675        C  0.04705662  0.86789405  0.70582930    -0.03230
C676        C  0.07993922  0.84031877  0.70231216    -0.07680
C677        C  0.11128687  0.83792378  0.73262556     0.05850
C678        C  0.10821331  0.86366797  0.76759396    -0.02710
Br679      Br  0.14915296  0.86666385  0.81021576    -0.02400
H680        H  0.07342811  0.91066374  0.79797673     0.09760
H681        H  0.08104143  0.82094528  0.67516876     0.07780
Br682      Br  0.00849109  0.87119432  0.66094978    -0.02830
C683        C  0.07393342  0.04210570  0.77927987    -0.09460
C684        C  0.04274624  0.04218378  0.74877963     0.06730
C685        C  0.04618092  0.07011209  0.71599793    -0.03230
C686        C  0.08080058  0.09569368  0.71329542    -0.07680
C687        C  0.11372057  0.09342241  0.74201714     0.05850
C688        C  0.10960793  0.06615919  0.77553842    -0.02710
Br689      Br  0.15313092  0.05596855  0.81433622    -0.02400
H690        H  0.07241681  0.01992347  0.80414081     0.09760
H691        H  0.08237747  0.11662602  0.68742040     0.07780
Br692      Br  0.00703128  0.07134843  0.67152604    -0.02830
C693        C  0.79085373  0.88207257  0.28997065    -0.09460
C694        C  0.80865601  0.88935043  0.25135400     0.06730
C695        C  0.79158401  0.87044491  0.21619892    -0.03230
C696        C  0.75738689  0.84430496  0.22014635    -0.07680
C697        C  0.73969059  0.83707633  0.25897990     0.05850
C698        C  0.75656922  0.85665999  0.29398095    -0.02710
Br699      Br  0.73232072  0.85204570  0.34777351    -0.02400
H700        H  0.80230671  0.89827593  0.31689155     0.09760
H701        H  0.74550130  0.82862771  0.19312411     0.07780
Br702      Br  0.81400408  0.88009642  0.16254813    -0.02830
C703        C  0.80400068  0.06063661  0.22576368    -0.09460
C704        C  0.81240508  0.03709738  0.26083437     0.06730
C705        C  0.78908577  0.04348021  0.29685524    -0.03230
C706        C  0.75756446  0.07281693  0.29710701    -0.07680
C707        C  0.74812370  0.09541976  0.26148642     0.05850
C708        C  0.77226631  0.08968807  0.22595163    -0.02710
Br709      Br  0.76482944  0.12201795  0.17762239    -0.02400
H710        H  0.82116992  0.05528245  0.19765961     0.09760
H711        H  0.74021015  0.07788858  0.32514369     0.07780
Br712      Br  0.79844034  0.01171356  0.34583231    -0.02830
C713        C  0.86825392  0.25191238  0.15126423    -0.09460
C714        C  0.86051056  0.23011996  0.11417932     0.06730
C715        C  0.82096421  0.21334993  0.10805448    -0.03230
C716        C  0.79116095  0.21739785  0.13898612    -0.07680
C717        C  0.80039670  0.23572813  0.17714112     0.05850
C718        C  0.83902440  0.25396668  0.18283189    -0.02710
Br719      Br  0.85273865  0.28247155  0.23278000    -0.02400
H720        H  0.89800607  0.26615937  0.15642882     0.09760
H721        H  0.76063237  0.20536113  0.13364427     0.07780
Br722      Br  0.80657230  0.18211949  0.06000271    -0.02830
C723        C  0.04206938  0.18604769  0.17358438    -0.09460
C724        C  0.05710029  0.22571482  0.18195520     0.06730
C725        C  0.04684907  0.25809736  0.15451583    -0.03230
C726        C  0.02267831  0.25021978  0.11974578    -0.07680
C727        C  0.00660090  0.21103516  0.11225505     0.05850
C728        C  0.01646167  0.17873614  0.13953926    -0.02710
Br729      Br  0.99319581  0.12490142  0.13305821    -0.02400
H730        H  0.04999239  0.16062996  0.19368254     0.09760
H731        H  0.01333964  0.27572174  0.10033785     0.07780
Br732      Br  0.06079056  0.31479224  0.16425247    -0.02830
C733        C  0.84214065  0.66809002  0.87819282    -0.09460
C734        C  0.86121122  0.70632393  0.88284169     0.06730
C735        C  0.85176814  0.73805046  0.85466375    -0.03230
C736        C  0.82371201  0.73122783  0.82258357    -0.07680
C737        C  0.80404425  0.69311664  0.81798603     0.05850
C738        C  0.81397698  0.66108511  0.84614287    -0.02710
Br739      Br  0.79283525  0.60603479  0.84145554    -0.02400
H740        H  0.85071219  0.64296389  0.89840061     0.09760
H741        H  0.81649219  0.75626662  0.80180906     0.07780
Br742      Br  0.87674827  0.79140478  0.85868970    -0.02830
C743        C  0.00918027  0.74935153  0.85312723    -0.09460
C744        C  0.00977715  0.72226570  0.88693135     0.06730
C745        C  0.04002665  0.69138902  0.88827905    -0.03230
C746        C  0.06665140  0.68615629  0.85485850    -0.07680
C747        C  0.06344502  0.71063112  0.81897273     0.05850
C748        C  0.03475456  0.74335098  0.81901279    -0.02710
Br749      Br  0.02529155  0.77882803  0.77279540    -0.02400
H750        H  0.98574443  0.77308594  0.85158042     0.09760
H751        H  0.08910068  0.66156211  0.85662725     0.07780
Br752      Br  0.04356183  0.65263178  0.93273202    -0.02830
C753        C  0.13730315  0.13724172  0.88422220    -0.09460
C754        C  0.17789555  0.15034819  0.87683774     0.06730
C755        C  0.21083235  0.12837211  0.89533412    -0.03230
C756        C  0.20284409  0.09368158  0.91929235    -0.07680
C757        C  0.16243926  0.08063673  0.92666270     0.05850
C758        C  0.12947702  0.10296565  0.90924146    -0.02710
Br759      Br  0.07339061  0.08782607  0.91947224    -0.02400
H760        H  0.11163682  0.15306611  0.86983764     0.09760
H761        H  0.22827384  0.07840315  0.93473197     0.07780
Br762      Br  0.26739293  0.14584125  0.89233620    -0.02830
C763        C  0.20183525  0.08305492  0.09130583    -0.09460
C764        C  0.16235915  0.07988600  0.07420262     0.06730
C765        C  0.13248037  0.10966459  0.08464778    -0.03230
C766        C  0.14244190  0.14200141  0.11142903    -0.07680
C767        C  0.18234053  0.14591705  0.12800017     0.05850
C768        C  0.21224826  0.11561329  0.11759901    -0.02710
Br769      Br  0.26875974  0.11701919  0.13573430    -0.02400
H770        H  0.22552074  0.06142162  0.08210568     0.09760
H771        H  0.11874175  0.16409885  0.11933489     0.07780
Br772      Br  0.07812448  0.10836417  0.06121560    -0.02830
C773        C  0.63254584  0.80862962  0.87834389    -0.09460
C774        C  0.66487578  0.77983941  0.87406104     0.06730
C775        C  0.70064349  0.78501496  0.89846307    -0.03230
C776        C  0.70394219  0.81909530  0.92464058    -0.07680
C777        C  0.67143231  0.84742537  0.92895937     0.05850
C778        C  0.63527647  0.84159833  0.90578507    -0.02710
Br779      Br  0.58705462  0.87498417  0.91355360    -0.02400
H780        H  0.60432237  0.80519769  0.86074736     0.09760
H781        H  0.73117878  0.82220133  0.94383388     0.07780
Br782      Br  0.74586707  0.74694116  0.89883671    -0.02830
C783        C  0.62752466  0.83643026  0.09070923    -0.09460
C784        C  0.66638703  0.84901067  0.07722126     0.06730
C785        C  0.70152228  0.82665365  0.08981135    -0.03230
C786        C  0.69738663  0.79225243  0.11533988    -0.07680
C787        C  0.65834073  0.77902013  0.12817321     0.05850
C788        C  0.62310412  0.80162939  0.11550404    -0.02710
Br789      Br  0.56760536  0.78489048  0.12763982    -0.02400
H790        H  0.60019658  0.85196015  0.07932414     0.09760
H791        H  0.72481352  0.77599216  0.12535796     0.07780
Br792      Br  0.75550325  0.84061947  0.07045763    -0.02830
C793        C  0.82547981  0.22877465  0.89227724    -0.09460
C794        C  0.86290945  0.24625037  0.88075265     0.06730
C795        C  0.86572498  0.26541410  0.84156170    -0.03230
C796        C  0.83328122  0.26181225  0.81302525    -0.07680
C797        C  0.79664360  0.24194305  0.82392403     0.05850
C798        C  0.79228048  0.22768956  0.86500880    -0.02710
Br799      Br  0.74218882  0.20621277  0.88710079    -0.02400
H800        H  0.82233634  0.21447239  0.92225521     0.09760
H801        H  0.83606374  0.27591290  0.78292072     0.07780
Br802      Br  0.91208113  0.29884105  0.82647130    -0.02830
C803        C  0.03336890  0.18062016  0.81467991    -0.09460
C804        C  0.06107632  0.21376871  0.81538128     0.06730
C805        C  0.06343296  0.23817258  0.85194116    -0.03230
C806        C  0.03644725  0.23107143  0.88451096    -0.07680
C807        C  0.00600025  0.20100155  0.88178430     0.05850
C808        C  0.00575474  0.17435563  0.84730982    -0.02710
Br809      Br  0.96621981  0.13081424  0.84237495    -0.02400
H810        H  0.03186733  0.16061291  0.78799379     0.09760
H811        H  0.03671921  0.25191799  0.91061913     0.07780
Br812      Br  0.10065070  0.28357961  0.86065534    -0.02830
C813        C  0.85445796  0.74529485  0.14894180    -0.09460
C814        C  0.85448901  0.71960761  0.11397055     0.06730
C815        C  0.82390178  0.68923500  0.11043693    -0.03230
C816        C  0.79555800  0.68376842  0.14234473    -0.07680
C817        C  0.79750927  0.70720937  0.17900986     0.05850
C818        C  0.82735194  0.73874974  0.18172442    -0.02710
Br819      Br  0.83654027  0.77130987  0.23031589    -0.02400
H820        H  0.87829371  0.76839410  0.15235852     0.09760
H821        H  0.77263681  0.65984283  0.13876709     0.07780
Br822      Br  0.82202646  0.65126193  0.06510577    -0.02830
C823        C  0.01404915  0.66410623  0.13184161    -0.09460
C824        C  0.00290602  0.70334784  0.11806932     0.06730
C825        C  0.01787425  0.73809057  0.13929218    -0.03230
C826        C  0.04398194  0.73333996  0.17341675    -0.07680
C827        C  0.05562231  0.69403005  0.18701183     0.05850
C828        C  0.04011549  0.65915833  0.16593751    -0.02710
Br829      Br  0.05078789  0.60393680  0.18407750    -0.02400
H830        H  0.00071125  0.63720518  0.11728312     0.09760
H831        H  0.05619307  0.76047289  0.18852571     0.07780
Br832      Br  0.00249785  0.79256411  0.12277444    -0.02830
C833        C  0.67431500  0.08065198  0.90092858    -0.09460
C834        C  0.64040635  0.07832123  0.92732577     0.06730
C835        C  0.60928428  0.10876586  0.92446241    -0.03230
C836        C  0.61317894  0.14131834  0.89650244    -0.07680
C837        C  0.64785747  0.14433152  0.87116664     0.05850
C838        C  0.67806067  0.11307373  0.87292765    -0.02710
Br839      Br  0.72537883  0.11337352  0.83782183    -0.02400
H840        H  0.69897456  0.05829115  0.90347494     0.09760
H841        H  0.58861677  0.16376414  0.89382904     0.07780
Br842      Br  0.56109181  0.10737439  0.95863733    -0.02830
C843        C  0.61959478  0.09156848  0.09191222    -0.09460
C844        C  0.65714694  0.07942749  0.07471949     0.06730
C845        C  0.69253877  0.10318270  0.08223879    -0.03230
C846        C  0.68997800  0.13865503  0.10655990    -0.07680
C847        C  0.65268481  0.15035117  0.12490436     0.05850
C848        C  0.61694608  0.12668524  0.11651241    -0.02710
Br849      Br  0.56270407  0.14248663  0.13437554    -0.02400
H850        H  0.59163960  0.07514567  0.08385005     0.09760
H851        H  0.71744025  0.15651312  0.11178578     0.07780
Br852      Br  0.74443719  0.08860260  0.05815729    -0.02830
C853        C  0.21352240  0.84498475  0.90715725    -0.09460
C854        C  0.17418353  0.84908157  0.92417738     0.06730
C855        C  0.14332091  0.82059814  0.91301504    -0.03230
C856        C  0.15218334  0.78856166  0.88559832    -0.07680
C857        C  0.19176913  0.78397641  0.86871194     0.05850
C858        C  0.22267988  0.81286922  0.87987204    -0.02710
Br859      Br  0.27893219  0.80921061  0.86177981    -0.02400
H860        H  0.23793455  0.86550750  0.91703676     0.09760
H861        H  0.12770143  0.76758129  0.87696227     0.07780
Br862      Br  0.08872564  0.82372539  0.93540996    -0.02830
C863        C  0.14063933  0.81250167  0.07441878    -0.09460
C864        C  0.16636881  0.84736231  0.07345997     0.06730
C865        C  0.19890331  0.84995667  0.10205743    -0.03230
C866        C  0.20554023  0.81792521  0.13010149    -0.07680
C867        C  0.18126966  0.78181712  0.12968439     0.05850
C868        C  0.14838062  0.77952687  0.10109941    -0.02710
Br869      Br  0.11530846  0.73128650  0.09317297    -0.02400
H870        H  0.11613045  0.80952189  0.05181782     0.09760
H871        H  0.23094244  0.82102677  0.15161381     0.07780
Br872      Br  0.23807576  0.89415637  0.10136614    -0.02830
loop_ 
_geom_bond_atom_site_label_1 
_geom_bond_atom_site_label_2 
_geom_bond_distance 
_geom_bond_site_symmetry_2 
_ccdc_geom_bond_type 
C1            C2   1.383       .  A
C1            C6   1.409       .  A
C1          C854   1.478       .  S
C2            C3   1.387   1_556  A
C2            H7   1.086       .  S
C3            C4   1.413       .  A
C3          C864   1.488       .  S
C4            C5   1.431   1_554  A
C4            H8   1.077       .  S
C5            C6   1.430       .  A
C5           C48   1.535       .  S
C6            H9   1.077       .  S
C10          C11   1.382   1_556  A
C10          C15   1.413       .  A
C10         C834   1.480       .  S
C11          C12   1.380       .  A
C11          H16   1.087       .  S
C12          C13   1.403       .  A
C12         C844   1.467       .  S
C13          C14   1.425   1_545  A
C13          H17   1.078   1_545  S
C14          C15   1.431   1_564  A
C14          C39   1.526       .  S
C15          H18   1.078   1_545  S
C19          C20   1.383       .  A
C19          C24   1.406       .  A
C19         C824   1.473   1_655  S
C20          C21   1.388       .  A
C20          H25   1.086       .  S
C21          C22   1.410       .  A
C21         C814   1.484       .  S
C22          C23   1.426       .  A
C22          H26   1.079       .  S
C23          C24   1.425       .  A
C23          C57   1.521   1_554  S
C24          H27   1.080       .  S
C28          C29   1.386       .  A
C28          C33   1.409       .  A
C28         C807   1.481   1_655  S
C29          C30   1.388       .  A
C29          H34   1.084       .  S
C30          C31   1.415       .  A
C30         C794   1.486       .  S
C31          C32   1.424       .  A
C31          H35   1.078       .  S
C32          C33   1.427       .  A
C32          C66   1.527   1_556  S
C33          H36   1.079       .  S
C37          C38   1.410       .  A
C37          C42   1.383   1_556  A
C37         C777   1.477       .  S
C38          C39   1.426   1_556  A
C38          H43   1.078       .  S
C39          C40   1.428       .  A
C40          C41   1.407       .  A
C40          H44   1.078       .  S
C41          C42   1.381       .  A
C41         C784   1.473       .  S
C42          H45   1.087       .  S
C46          C47   1.409       .  A
C46          C51   1.382   1_556  A
C46         C757   1.475       .  S
C47          C48   1.430   1_545  A
C47          H52   1.077   1_545  S
C48          C49   1.430   1_566  A
C49          C50   1.412       .  A
C49          H53   1.078   1_545  S
C50          C51   1.384       .  A
C50         C764   1.480       .  S
C51          H54   1.087       .  S
C55          C56   1.407       .  A
C55          C60   1.383       .  A
C55         C734   1.477       .  S
C56          C57   1.426       .  A
C56          H61   1.080       .  S
C57          C58   1.426       .  A
C58          C59   1.410       .  A
C58          H62   1.080       .  S
C59          C60   1.388       .  A
C59         C744   1.483   1_655  S
C60          H63   1.086       .  S
C64          C65   1.418       .  A
C64          C69   1.390       .  A
C64         C714   1.497       .  S
C65          C66   1.430       .  A
C65          H70   1.077       .  S
C66          C67   1.422       .  A
C67          C68   1.405       .  A
C67          H71   1.079   1_655  S
C68          C69   1.384       .  A
C68         C727   1.473   1_655  S
C69          H72   1.086       .  S
C73          C74   1.384       .  A
C73          C78   1.409       .  A
C73         C694   1.473       .  S
C74          C75   1.382       .  A
C74          H79   1.087       .  S
C75          C76   1.404       .  A
C75         C704   1.469   1_565  S
C76          C77   1.425       .  A
C76          H80   1.079   1_565  S
C77          C78   1.428       .  A
C77         C104   1.522       .  S
C78          H81   1.079       .  S
C82          C83   1.382       .  A
C82          C87   1.404   1_455  A
C82         C674   1.480       .  S
C83          C84   1.385   1_565  A
C83          H88   1.086       .  S
C84          C85   1.418   1_455  A
C84         C684   1.492       .  S
C85          C86   1.435   1_545  A
C85          H89   1.078       .  S
C86          C87   1.428       .  A
C86          C93   1.535       .  S
C87          H90   1.075       .  S
C91          C92   1.413   1_565  A
C91          C96   1.381       .  A
C91         C664   1.476   1_565  S
C92          C93   1.430   1_545  A
C92          H97   1.078       .  S
C93          C94   1.432       .  A
C94          C95   1.406       .  A
C94          H98   1.075       .  S
C95          C96   1.378       .  A
C95         C654   1.473       .  S
C96          H99   1.087       .  S
C100        C101   1.387       .  A
C100        C105   1.408   1_455  A
C100        C644   1.483   1_565  S
C101        C102   1.383       .  A
C101        H106   1.086       .  S
C102        C103   1.407   1_455  A
C102        C637   1.472       .  S
C103        C104   1.425       .  A
C103        H107   1.079       .  S
C104        C105   1.427       .  A
C105        H108   1.079   1_565  S
C109        C110   1.380       .  A
C109        C114   1.407       .  A
C109        C624   1.473       .  S
C110        C111   1.383       .  A
C110        H115   1.087       .  S
C111        C112   1.405       .  A
C111        C617   1.469       .  S
C112        C113   1.426       .  A
C112        H116   1.077       .  S
C113        C114   1.431       .  A
C113        C191   1.529       .  S
C114        H117   1.076       .  S
Fe118       O134   2.046       .  S
Fe118       O124   2.087       .  S
Fe118       O131   2.096       .  S
Fe118       O123   2.036       .  S
Fe118       O129   1.915       .  S
Fe119       O122   2.062       .  S
Fe119       O126   2.102       .  S
Fe119       O130   2.051       .  S
Fe119       O135   2.104       .  S
Fe119       O129   1.912       .  S
Fe120       O138   2.094       .  S
Fe120       O125   2.049       .  S
Fe120       O132   2.071       .  S
Fe120       O121   2.113       .  S
Fe120       O129   1.919       .  S
O121        C128   1.277       .  A
O122        C136   1.269       .  A
O123        C128   1.256       .  A
O124        C127   1.280       .  A
O125        C137   1.263       .  A
O126        C139   1.278       .  A
C127        C707   1.471       .  S
C127        O132   1.271       .  A
C128        C604   1.488       .  S
O130        C133   1.267       .  A
O131        C133   1.279       .  A
C133        C627   1.478       .  S
O134        C139   1.262       .  A
O135        C137   1.277       .  A
C136        C717   1.474       .  S
C136        O138   1.280       .  A
C137        C597   1.485       .  S
C139        C847   1.482       .  S
C140        C141   1.409       .  A
C140        C145   1.385       .  A
C140        C574   1.480       .  S
C141        C142   1.426       .  A
C141        H146   1.081       .  S
C142        C143   1.426       .  A
C142        C242   1.521       .  S
C143        C144   1.412       .  A
C143        H147   1.080       .  S
C144        C145   1.382       .  A
C144        C584   1.475       .  S
C145        H148   1.087       .  S
C149        C150   1.379       .  A
C149        C154   1.410       .  A
C149        C564   1.474       .  S
C150        C151   1.381       .  A
C150        H155   1.087       .  S
C151        C152   1.410       .  A
C151        C607   1.475       .  S
C152        C153   1.432       .  A
C152        H156   1.077       .  S
C153        C154   1.431       .  A
C153        C311   1.535       .  S
C154        H157   1.077       .  S
Fe158       O174   2.120       .  S
Fe158       O164   1.991       .  S
Fe158       O171   1.997       .  S
Fe158       O163   2.118       .  S
Fe158       O169   1.969       .  S
Fe159       O162   2.121       .  S
Fe159       O166   2.002       .  S
Fe159       O170   2.114       .  S
Fe159       O175   2.016       .  S
Fe159       O169   1.985       .  S
Fe160       O178   1.989       .  S
Fe160       O165   2.112       .  S
Fe160       O172   2.120       .  S
Fe160       O161   2.017       .  S
Fe160       O169   1.974       .  S
O161        C168   1.256       .  A
O162        C176   1.277       .  A
O163        C168   1.280       .  A
O164        C167   1.252       .  A
O165        C177   1.279       .  A
O166        C179   1.255       .  A
C167        C557   1.479       .  S
C167        O172   1.278       .  A
C168        C797   1.480       .  S
O170        C173   1.278       .  A
O171        C173   1.253       .  A
C173        C667   1.480       .  S
O174        C179   1.280       .  A
O175        C177   1.258       .  A
C176        C587   1.477       .  S
C176        O178   1.252       .  A
C177        C837   1.470       .  S
C179        C567   1.469       .  S
C180        C181   1.384       .  A
C180        C185   1.413       .  A
C180        C594   1.479       .  S
C181        C182   1.384       .  A
C181        H186   1.087       .  S
C182        C183   1.410       .  A
C182        C544   1.480       .  S
C183        C184   1.432       .  A
C183        H187   1.076       .  S
C184        C185   1.431       .  A
C184        C231   1.538       .  S
C185        H188   1.077       .  S
C189        C190   1.410       .  A
C189        C194   1.383       .  A
C189        C524   1.481       .  S
C190        C191   1.431       .  A
C190        H195   1.077       .  S
C191        C192   1.426       .  A
C192        C193   1.404       .  A
C192        H196   1.076       .  S
C193        C194   1.383       .  A
C193        C534   1.475       .  S
C194        H197   1.086       .  S
Fe198       O214   2.085       .  S
Fe198       O204   2.063       .  S
Fe198       O211   2.058       .  S
Fe198       O203   2.081       .  S
Fe198       O209   1.912       .  S
Fe199       O202   2.083       .  S
Fe199       O206   2.051       .  S
Fe199       O210   2.089       .  S
Fe199       O215   2.047       .  S
Fe199       O209   1.909       .  S
Fe200       O218   2.062       .  S
Fe200       O205   2.096       .  S
Fe200       O212   2.090       .  S
Fe200       O201   2.063       .  S
Fe200       O209   1.911       .  S
O201        C208   1.269       .  A
O202        C216   1.277       .  A
O203        C208   1.273       .  A
O204        C207   1.268       .  A
O205        C217   1.277       .  A
O206        C219   1.264       .  A
C207        C547   1.489       .  S
C207        O212   1.277       .  A
C208        C817   1.492       .  S
O210        C213   1.277       .  A
O211        C213   1.269       .  A
C213        C697   1.473       .  S
O214        C219   1.276       .  A
O215        C217   1.262       .  A
C216        C537   1.489       .  S
C216        O218   1.270       .  A
C217        C787   1.479       .  S
C219        C514   1.479       .  S
C220        C221   1.380       .  A
C220        C225   1.405       .  A
C220        C507   1.468       .  S
C221        C222   1.381       .  A
C221        H226   1.087       .  S
C222        C223   1.407       .  A
C222        C517   1.469       .  S
C223        C224   1.427       .  A
C223        H227   1.077       .  S
C224        C225   1.428       .  A
C224        C271   1.528       .  S
C225        H228   1.076       .  S
C229        C230   1.414       .  A
C229        C234   1.373       .  A
C229        C554   1.475       .  S
C230        C231   1.436       .  A
C230        H235   1.077       .  S
C231        C232   1.433       .  A
C232        C233   1.409       .  A
C232        H236   1.076       .  S
C233        C234   1.375       .  A
C233        C494   1.476       .  S
C234        H237   1.088       .  S
C238        C239   1.385       .  A
C238        C243   1.413       .  A
C238        C477   1.480       .  S
C239        C240   1.389       .  A
C239        H244   1.086       .  S
C240        C241   1.409       .  A
C240        C484   1.487       .  S
C241        C242   1.424       .  A
C241        H245   1.080       .  S
C242        C243   1.427       .  A
C243        H246   1.080       .  S
Fe247       O263   2.050       .  S
Fe247       O253   2.102       .  S
Fe247       O260   2.091       .  S
Fe247       O252   2.055       .  S
Fe247       O258   1.914       .  S
Fe248       O251   2.057       .  S
Fe248       O255   2.090       .  S
Fe248       O259   2.059       .  S
Fe248       O264   2.087       .  S
Fe248       O258   1.917       .  S
Fe249       O267   2.102       .  S
Fe249       O254   2.057       .  S
Fe249       O261   2.055       .  S
Fe249       O250   2.099       .  S
Fe249       O258   1.912       .  S
O250        C257   1.279       .  A
O251        C265   1.266       .  A
O252        C257   1.267       .  A
O253        C256   1.280       .  A
O254        C266   1.268       .  A
O255        C268   1.275       .  A
C256        C504   1.481       .  S
C256        O261   1.266       .  A
C257        C657   1.477       .  S
O259        C262   1.267       .  A
O260        C262   1.280       .  A
C262        C737   1.486       .  S
O263        C268   1.264       .  A
O264        C266   1.276       .  A
C265        C474   1.486       .  S
C265        O267   1.279       .  A
C266        C774   1.488       .  S
C268        C497   1.488       .  S
C269        C270   1.404       .  A
C269        C274   1.380       .  A
C269        C464   1.467       .  S
C270        C271   1.427       .  A
C270        H275   1.076       .  S
C271        C272   1.429       .  A
C272        C273   1.408       .  A
C272        H276   1.077       .  S
C273        C274   1.381       .  A
C273        C454   1.473       .  S
C274        H277   1.087       .  S
C278        C279   1.385       .  A
C278        C283   1.414       .  A
C278        C437   1.484       .  S
C279        C280   1.381       .  A
C279        H284   1.086       .  S
C280        C281   1.402       .  A
C280        C444   1.468       .  S
C281        C282   1.426       .  A
C281        H285   1.076       .  S
C282        C283   1.432       .  A
C282        C342   1.531       .  S
C283        H286   1.077       .  S
Fe287       O303   2.084       .  S
Fe287       O293   2.065       .  S
Fe287       O300   2.058       .  S
Fe287       O292   2.085       .  S
Fe287       O298   1.913       .  S
Fe288       O291   2.091       .  S
Fe288       O295   2.062       .  S
Fe288       O299   2.096       .  S
Fe288       O304   2.067       .  S
Fe288       O298   1.910       .  S
Fe289       O307   2.059       .  S
Fe289       O294   2.090       .  S
Fe289       O301   2.085       .  S
Fe289       O290   2.060       .  S
Fe289       O298   1.914       .  S
O290        C297   1.269       .  A
O291        C305   1.276       .  A
O292        C297   1.275       .  A
O293        C296   1.268       .  A
O294        C306   1.278       .  A
O295        C308   1.268       .  A
C296        C857   1.488       .  S
C296        O301   1.277       .  A
C297        C487   1.491       .  S
O299        C302   1.279       .  A
O300        C302   1.267       .  A
C302        C467   1.482       .  S
O303        C308   1.275       .  A
O304        C306   1.265       .  A
C305        C747   1.494       .  S
C305        O307   1.268       .  A
C306        C434   1.494       .  S
C308        C677   1.490       .  S
C309        C310   1.412       .  A
C309        C314   1.383       .  A
C309        C414   1.480       .  S
C310        C311   1.431       .  A
C310        H315   1.077       .  S
C311        C312   1.430       .  A
C312        C313   1.410       .  A
C312        H316   1.077       .  S
C313        C314   1.381       .  A
C313        C427   1.475       .  S
C314        H317   1.086       .  S
Fe318       O334   2.073       .  S
Fe318       O324   2.094       .  S
Fe318       O331   2.120       .  S
Fe318       O323   2.043       .  S
Fe318       O329   1.923       .  S
Fe319       O322   2.057       .  S
Fe319       O326   2.080       .  S
Fe319       O330   2.037       .  S
Fe319       O335   2.099       .  S
Fe319       O329   1.917       .  S
Fe320       O338   2.095       .  S
Fe320       O325   2.050       .  S
Fe320       O332   2.077       .  S
Fe320       O321   2.116       .  S
Fe320       O329   1.910       .  S
O321        C328   1.276       .  A
O322        C336   1.266       .  A
O323        C328   1.260       .  A
O324        C327   1.282       .  A
O325        C337   1.264       .  A
O326        C339   1.279       .  A
C327        C417   1.476       .  S
C327        O332   1.274       .  A
C328        C687   1.500       .  S
O330        C333   1.253       .  A
O331        C333   1.275       .  A
C333        C804   1.492       .  S
O334        C339   1.272       .  A
O335        C337   1.276       .  A
C336        C577   1.468       .  S
C336        O338   1.281       .  A
C337        C754   1.482       .  S
C339        C447   1.468       .  S
C340        C341   1.411       .  A
C340        C345   1.389       .  A
C340        C394   1.485       .  S
C341        C342   1.428       .  A
C341        H346   1.077       .  S
C342        C343   1.429       .  A
C343        C344   1.405       .  A
C343        H347   1.076       .  S
C344        C345   1.382       .  A
C344        C404   1.476       .  S
C345        H348   1.086       .  S
Fe349       O365   2.065       .  S
Fe349       O355   2.086       .  S
Fe349       O362   2.091       .  S
Fe349       O354   2.060       .  S
Fe349       O360   1.912       .  S
Fe350       O353   2.060       .  S
Fe350       O357   2.092       .  S
Fe350       O361   2.061       .  S
Fe350       O366   2.091       .  S
Fe350       O360   1.916       .  S
Fe351       O369   2.088       .  S
Fe351       O356   2.062       .  S
Fe351       O363   2.059       .  S
Fe351       O352   2.082       .  S
Fe351       O360   1.913       .  S
O352        C359   1.277       .  A
O353        C367   1.266       .  A
O354        C359   1.267       .  A
O355        C358   1.277       .  A
O356        C368   1.269       .  A
O357        C370   1.277       .  A
C358        C634   1.476       .  S
C358        O363   1.267       .  A
C359        C457   1.483       .  S
O361        C364   1.267       .  A
O362        C364   1.275       .  A
C364        C527   1.494       .  S
O365        C370   1.270       .  A
O366        C368   1.277       .  A
C367        C827   1.479       .  S
C367        O369   1.276       .  A
C368        C397   1.495       .  S
C370        C867   1.496       .  S
Fe371       O387   2.087       .  S
Fe371       O377   2.058       .  S
Fe371       O384   2.064       .  S
Fe371       O376   2.090       .  S
Fe371       O382   1.909       .  S
Fe372       O375   2.089       .  S
Fe372       O379   2.060       .  S
Fe372       O383   2.083       .  S
Fe372       O388   2.070       .  S
Fe372       O382   1.916       .  S
Fe373       O391   2.048       .  S
Fe373       O378   2.085       .  S
Fe373       O385   2.095       .  S
Fe373       O374   2.060       .  S
Fe373       O382   1.915       .  S
O374        C381   1.267       .  A
O375        C389   1.274       .  A
O376        C381   1.278       .  A
O377        C380   1.265       .  A
O378        C390   1.279       .  A
O379        C392   1.268       .  A
C380        C767   1.491       .  S
C380        O385   1.278       .  A
C381        C614   1.484       .  S
O383        C386   1.277       .  A
O384        C386   1.268       .  A
C386        C424   1.487       .  S
O387        C392   1.275       .  A
O388        C390   1.272       .  A
C389        C724   1.482       .  S
C389        O391   1.261       .  A
C390        C407   1.479       .  S
C392        C647   1.493       .  S
C393        C394   1.407       .  A
C393        C398   1.399       .  A
C393        H400   1.084       .  S
C394        C395   1.406       .  A
C395        C396   1.398       .  A
C395       Br402   1.920       .  S
C396        C397   1.414       .  A
C396        H401   1.083       .  S
C397        C398   1.413       .  A
C398       Br399   1.914       .  S
C403        C404   1.401       .  A
C403        C408   1.399       .  A
C403        H410   1.084       .  S
C404        C405   1.409       .  A
C405        C406   1.401       .  A
C405       Br412   1.917       .  S
C406        C407   1.405       .  A
C406        H411   1.084       .  S
C407        C408   1.414       .  A
C408       Br409   1.922       .  S
C413        C414   1.397       .  A
C413        C418   1.398       .  A
C413        H420   1.084       .  S
C414        C415   1.416       .  A
C415        C416   1.401       .  A
C415       Br422   1.920       .  S
C416        C417   1.400       .  A
C416        H421   1.084       .  S
C417        C418   1.411       .  A
C418       Br419   1.901       .  S
C423        C424   1.407       .  A
C423        C428   1.401       .  A
C423        H430   1.083       .  S
C424        C425   1.421       .  A
C425        C426   1.397       .  A
C425       Br432   1.924       .  S
C426        C427   1.397       .  A
C426        H431   1.084       .  S
C427        C428   1.411       .  A
C428       Br429   1.919       .  S
C433        C434   1.406       .  A
C433        C438   1.400       .  A
C433        H440   1.083       .  S
C434        C435   1.427       .  A
C435        C436   1.400       .  A
C435       Br442   1.925       .  S
C436        C437   1.396       .  A
C436        H441   1.084       .  S
C437        C438   1.414       .  A
C438       Br439   1.922       .  S
C443        C444   1.403       .  A
C443        C448   1.398       .  A
C443        H450   1.084       .  S
C444        C445   1.405       .  A
C445        C446   1.397       .  A
C445       Br452   1.919       .  S
C446        C447   1.401       .  A
C446        H451   1.077       .  S
C447        C448   1.408       .  A
C448       Br449   1.919       .  S
C453        C454   1.398       .  A
C453        C458   1.397       .  A
C453        H460   1.084       .  S
C454        C455   1.410       .  A
C455        C456   1.399       .  A
C455       Br462   1.919       .  S
C456        C457   1.405       .  A
C456        H461   1.084       .  S
C457        C458   1.420       .  A
C458       Br459   1.924       .  S
C463        C464   1.398       .  A
C463        C468   1.396       .  A
C463        H470   1.084       .  S
C464        C465   1.405       .  A
C465        C466   1.397       .  A
C465       Br472   1.918       .  S
C466        C467   1.408       .  A
C466        H471   1.083       .  S
C467        C468   1.411       .  A
C468       Br469   1.900       .  S
C473        C474   1.403       .  A
C473        C478   1.402       .  A
C473        H480   1.082       .  S
C474        C475   1.418       .  A
C475        C476   1.401       .  A
C475       Br482   1.922       .  S
C476        C477   1.400       .  A
C476        H481   1.084       .  S
C477        C478   1.412       .  A
C478       Br479   1.918       .  S
C483        C484   1.410       .  A
C483        C488   1.399       .  A
C483        H490   1.084       .  S
C484        C485   1.407       .  A
C485        C486   1.397       .  A
C485       Br492   1.921       .  S
C486        C487   1.413       .  A
C486        H491   1.083       .  S
C487        C488   1.412       .  A
C488       Br489   1.920       .  S
C493        C494   1.410       .  A
C493        C498   1.398       .  A
C493        H500   1.084       .  S
C494        C495   1.402       .  A
C495        C496   1.396       .  A
C495       Br502   1.920       .  S
C496        C497   1.416       .  A
C496        H501   1.083       .  S
C497        C498   1.411       .  A
C498       Br499   1.919       .  S
C503        C504   1.409       .  A
C503        C508   1.399       .  A
C503        H510   1.084       .  S
C504        C505   1.408       .  A
C505        C506   1.396       .  A
C505       Br512   1.895       .  S
C506        C507   1.398       .  A
C506        H511   1.084       .  S
C507        C508   1.406       .  A
C508       Br509   1.919       .  S
C513        C514   1.405       .  A
C513        C518   1.399       .  A
C513        H520   1.084       .  S
C514        C515   1.420       .  A
C515        C516   1.394       .  A
C515       Br522   1.925       .  S
C516        C517   1.396       .  A
C516        H521   1.084       .  S
C517        C518   1.410       .  A
C518       Br519   1.918       .  S
C523        C524   1.406       .  A
C523        C528   1.399       .  A
C523        H530   1.084       .  S
C524        C525   1.404       .  A
C525        C526   1.400       .  A
C525       Br532   1.918       .  S
C526        C527   1.415       .  A
C526        H531   1.083       .  S
C527        C528   1.414       .  A
C528       Br529   1.915       .  S
C533        C534   1.405       .  A
C533        C538   1.397       .  A
C533        H540   1.084       .  S
C534        C535   1.402       .  A
C535        C536   1.396       .  A
C535       Br542   1.920       .  S
C536        C537   1.414       .  A
C536        H541   1.083       .  S
C537        C538   1.413       .  A
C538       Br539   1.916       .  S
C543        C544   1.400       .  A
C543        C548   1.401       .  A
C543        H550   1.084       .  S
C544        C545   1.410       .  A
C545        C546   1.401       .  A
C545       Br552   1.919       .  S
C546        C547   1.407       .  A
C546        H551   1.084       .  S
C547        C548   1.420       .  A
C548       Br549   1.923       .  S
C553        C554   1.399       .  A
C553        C558   1.397       .  A
C553        H560   1.084       .  S
C554        C555   1.416       .  A
C555        C556   1.404       .  A
C555       Br562   1.920       .  S
C556        C557   1.400       .  A
C556        H561   1.084       .  S
C557        C558   1.418       .  A
C558       Br559   1.923       .  S
C563        C564   1.398       .  A
C563        C568   1.399       .  A
C563        H570   1.084       .  S
C564        C565   1.411       .  A
C565        C566   1.400       .  A
C565       Br572   1.919       .  S
C566        C567   1.403       .  A
C566        H571   1.084       .  S
C567        C568   1.409       .  A
C568       Br569   1.903       .  S
C573        C574   1.412       .  A
C573        C578   1.399       .  A
C573        H580   1.084       .  S
C574        C575   1.405       .  A
C575        C576   1.399       .  A
C575       Br582   1.918       .  S
C576        C577   1.404       .  A
C576        H581   1.080       .  S
C577        C578   1.402       .  A
C578       Br579   1.917       .  S
C583        C584   1.400       .  A
C583        C588   1.395       .  A
C583        H590   1.084       .  S
C584        C585   1.411       .  A
C585        C586   1.406       .  A
C585       Br592   1.916       .  S
C586        C587   1.403       .  A
C586        H591   1.082       .  S
C587        C588   1.416       .  A
C588       Br589   1.924       .  S
C593        C594   1.401       .  A
C593        C598   1.400       .  A
C593        H600   1.084       .  S
C594        C595   1.409       .  A
C595        C596   1.404       .  A
C595       Br602   1.915       .  S
C596        C597   1.406       .  A
C596        H601   1.084       .  S
C597        C598   1.417       .  A
C598       Br599   1.923       .  S
C603        C604   1.405       .  A
C603        C608   1.403       .  A
C603        H610   1.083       .  S
C604        C605   1.423       .  A
C605        C606   1.397       .  A
C605       Br612   1.926       .  S
C606        C607   1.396       .  A
C606        H611   1.084       .  S
C607        C608   1.411       .  A
C608       Br609   1.916       .  S
C613        C614   1.411       .  A
C613        C618   1.399       .  A
C613        H620   1.083       .  S
C614        C615   1.411       .  A
C615        C616   1.395       .  A
C615       Br622   1.903       .  S
C616        C617   1.400       .  A
C616        H621   1.084       .  S
C617        C618   1.404       .  A
C618       Br619   1.919       .  S
C623        C624   1.399       .  A
C623        C628   1.394       .  A
C623        H630   1.084       .  S
C624        C625   1.409       .  A
C625        C626   1.404       .  A
C625       Br632   1.915       .  S
C626        C627   1.405       .  A
C626        H631   1.083       .  S
C627        C628   1.415       .  A
C628       Br629   1.924       .  S
C633        C634   1.403       .  A
C633        C638   1.399       .  A
C633        H640   1.084       .  S
C634        C635   1.415       .  A
C635        C636   1.398       .  A
C635       Br642   1.922       .  S
C636        C637   1.400       .  A
C636        H641   1.084       .  S
C637        C638   1.409       .  A
C638       Br639   1.918       .  S
C643        C644   1.407       .  A
C643        C648   1.399       .  A
C643        H650   1.084       .  S
C644        C645   1.405       .  A
C645        C646   1.398       .  A
C645       Br652   1.921   1_455  S
C646        C647   1.413       .  A
C646        H651   1.083       .  S
C647        C648   1.413       .  A
C648       Br649   1.916       .  S
C653        C654   1.402       .  A
C653        C658   1.401       .  A
C653        H660   1.084       .  S
C654        C655   1.409       .  A
C655        C656   1.397       .  A
C655       Br662   1.920       .  S
C656        C657   1.406       .  A
C656        H661   1.084       .  S
C657        C658   1.409       .  A
C658       Br659   1.909       .  S
C663        C664   1.396       .  A
C663        C668   1.398       .  A
C663        H670   1.084       .  S
C664        C665   1.416       .  A
C665        C666   1.398       .  A
C665       Br672   1.922   1_545  S
C666        C667   1.397       .  A
C666        H671   1.081       .  S
C667        C668   1.422       .  A
C668       Br669   1.925       .  S
C673        C674   1.406       .  A
C673        C678   1.397       .  A
C673        H680   1.084       .  S
C674        C675   1.404       .  A
C675        C676   1.398       .  A
C675       Br682   1.919       .  S
C676        C677   1.414       .  A
C676        H681   1.083       .  S
C677        C678   1.413       .  A
C678       Br679   1.916       .  S
C683        C684   1.413       .  A
C683        C688   1.403       .  A
C683        H690   1.084       .  S
C684        C685   1.404       .  A
C685        C686   1.402       .  A
C685       Br692   1.919       .  S
C686        C687   1.417       .  A
C686        H691   1.083       .  S
C687        C688   1.411       .  A
C688       Br689   1.917       .  S
C693        C694   1.402       .  A
C693        C698   1.393       .  A
C693        H700   1.084       .  S
C694        C695   1.407       .  A
C695        C696   1.405       .  A
C695       Br702   1.915       .  S
C696        C697   1.406       .  A
C696        H701   1.084       .  S
C697        C698   1.410       .  A
C698       Br699   1.923       .  S
C703        C704   1.398       .  A
C703        C708   1.397       .  A
C703        H710   1.084       .  S
C704        C705   1.409       .  A
C705        C706   1.398       .  A
C705       Br712   1.919       .  S
C706        C707   1.403       .  A
C706        H711   1.084       .  S
C707        C708   1.408       .  A
C708       Br709   1.903       .  S
C713        C714   1.417       .  A
C713        C718   1.400       .  A
C713        H720   1.084       .  S
C714        C715   1.408       .  A
C715        C716   1.402       .  A
C715       Br722   1.916       .  S
C716        C717   1.405       .  A
C716        H721   1.079       .  S
C717        C718   1.399       .  A
C718       Br719   1.917       .  S
C723        C724   1.406       .  A
C723        C728   1.400       .  A
C723        H730   1.084       .  S
C724        C725   1.418       .  A
C725        C726   1.395       .  A
C725       Br732   1.925       .  S
C726        C727   1.398       .  A
C726        H731   1.084       .  S
C727        C728   1.410       .  A
C728       Br729   1.919   1_455  S
C733        C734   1.397       .  A
C733        C738   1.400       .  A
C733        H740   1.084       .  S
C734        C735   1.412       .  A
C735        C736   1.398       .  A
C735       Br742   1.920       .  S
C736        C737   1.402       .  A
C736        H741   1.083       .  S
C737        C738   1.422       .  A
C738       Br739   1.924       .  S
C743        C744   1.407       .  A
C743        C748   1.399       .  A
C743        H750   1.084   1_455  S
C744        C745   1.404       .  A
C745        C746   1.399       .  A
C745       Br752   1.919       .  S
C746        C747   1.414       .  A
C746        H751   1.083       .  S
C747        C748   1.413       .  A
C748       Br749   1.917       .  S
C753        C754   1.406       .  A
C753        C758   1.404       .  A
C753        H760   1.083       .  S
C754        C755   1.417       .  A
C755        C756   1.396       .  A
C755       Br762   1.924       .  S
C756        C757   1.400       .  A
C756        H761   1.084       .  S
C757        C758   1.409       .  A
C758       Br759   1.916       .  S
C763        C764   1.398       .  A
C763        C768   1.400       .  A
C763        H770   1.084       .  S
C764        C765   1.412       .  A
C765        C766   1.401       .  A
C765       Br772   1.918       .  S
C766        C767   1.406       .  A
C766        H771   1.083       .  S
C767        C768   1.424       .  A
C768       Br769   1.924       .  S
C773        C774   1.413       .  A
C773        C778   1.396       .  A
C773        H780   1.083       .  S
C774        C775   1.413       .  A
C775        C776   1.400       .  A
C775       Br782   1.919       .  S
C776        C777   1.407       .  A
C776        H781   1.084       .  S
C777        C778   1.404       .  A
C778       Br779   1.921       .  S
C783        C784   1.398       .  A
C783        C788   1.397       .  A
C783        H790   1.084       .  S
C784        C785   1.411       .  A
C785        C786   1.400       .  A
C785       Br792   1.918       .  S
C786        C787   1.403       .  A
C786        H791   1.084       .  S
C787        C788   1.419       .  A
C788       Br789   1.924       .  S
C793        C794   1.394       .  A
C793        C798   1.392       .  A
C793        H800   1.084       .  S
C794        C795   1.420       .  A
C795        C796   1.404       .  A
C795       Br802   1.922       .  S
C796        C797   1.400       .  A
C796        H801   1.083       .  S
C797        C798   1.419       .  A
C798       Br799   1.912       .  S
C803        C804   1.405       .  A
C803        C808   1.404       .  A
C803        H810   1.083       .  S
C804        C805   1.428       .  A
C805        C806   1.394       .  A
C805       Br812   1.929       .  S
C806        C807   1.393       .  A
C806        H811   1.084       .  S
C807        C808   1.414       .  A
C808       Br809   1.918   1_455  S
C813        C814   1.408       .  A
C813        C818   1.399       .  A
C813        H820   1.084       .  S
C814        C815   1.405       .  A
C815        C816   1.399       .  A
C815       Br822   1.920       .  S
C816        C817   1.413       .  A
C816        H821   1.083       .  S
C817        C818   1.414       .  A
C818       Br819   1.920       .  S
C823        C824   1.400       .  A
C823        C828   1.399       .  A
C823        H830   1.084       .  S
C824        C825   1.408       .  A
C825        C826   1.400       .  A
C825       Br832   1.917       .  S
C826        C827   1.404       .  A
C826        H831   1.084       .  S
C827        C828   1.416       .  A
C828       Br829   1.921       .  S
C833        C834   1.399       .  A
C833        C838   1.398       .  A
C833        H840   1.084       .  S
C834        C835   1.416       .  A
C835        C836   1.401       .  A
C835       Br842   1.920       .  S
C836        C837   1.399       .  A
C836        H841   1.084       .  S
C837        C838   1.412       .  A
C838       Br839   1.915       .  S
C843        C844   1.398       .  A
C843        C848   1.395       .  A
C843        H850   1.084       .  S
C844        C845   1.405       .  A
C845        C846   1.400       .  A
C845       Br852   1.918       .  S
C846        C847   1.402       .  A
C846        H851   1.077       .  S
C847        C848   1.418       .  A
C848       Br849   1.924       .  S
C853        C854   1.399       .  A
C853        C858   1.401       .  A
C853        H860   1.084       .  S
C854        C855   1.411       .  A
C855        C856   1.399       .  A
C855       Br862   1.919       .  S
C856        C857   1.406       .  A
C856        H861   1.084       .  S
C857        C858   1.421       .  A
C858       Br859   1.923       .  S
C863        C864   1.409       .  A
C863        C868   1.401       .  A
C863        H870   1.084       .  S
C864        C865   1.405       .  A
C865        C866   1.400       .  A
C865       Br872   1.920       .  S
C866        C867   1.415       .  A
C866        H871   1.083       .  S
C867        C868   1.413       .  A
C868       Br869   1.918       .  S
