geometry optimzed in LAMMPS
_audit_creation_date              2020-11-30 
_audit_creation_method            'lammps2cif' 
_symmetry_space_group_name_H-M    'P1' 
_symmetry_Int_Tables_number       1 
_symmetry_cell_setting            triclinic 
loop_ 
_symmetry_equiv_pos_as_xyz 
  x,y,z 
_cell_length_a                    75.00273309 
_cell_length_b                    75.40824120955591 
_cell_length_c                    75.24663095973166 
_cell_angle_alpha                 90.00750173662433 
_cell_angle_beta                  90.02814011297126 
_cell_angle_gamma                 89.99308273899834 
loop_ 
_atom_site_label 
_atom_site_type_symbol 
_atom_site_fract_x 
_atom_site_fract_y 
_atom_site_fract_z 
_atom_site_charge 
C1          C  0.19148136  0.20662127  0.48689957     0.02200
C2          C  0.20503655  0.19352553  0.48662116     0.02200
C3          C  0.21223293  0.18751326  0.50274772    -0.18400
C4          C  0.20636957  0.19431835  0.51908614     0.02200
C5          C  0.19221852  0.20668597  0.51942239     0.02200
C6          C  0.18475162  0.21242645  0.50333272    -0.18400
H7          H  0.17413368  0.22218501  0.50359305     0.04200
H8          H  0.22314452  0.17807614  0.50254555     0.04200
C9          C  0.18988441  0.50209289  0.18638406     0.02200
C10         C  0.20278021  0.50197610  0.17259202     0.02200
C11         C  0.20853273  0.51813944  0.16533799    -0.18400
C12         C  0.20284045  0.53442225  0.17224479     0.02200
C13         C  0.18998694  0.53456240  0.18603067     0.02200
C14         C  0.18331937  0.51840844  0.19256174    -0.18400
H15         H  0.17371955  0.51854731  0.20333367     0.04200
H16         H  0.21818700  0.51807247  0.15461365     0.04200
C17         C  0.50075451  0.20253391  0.17179077     0.02200
C18         C  0.50000278  0.18820992  0.18399668     0.02200
C19         C  0.51605905  0.18113138  0.19051190    -0.18400
C20         C  0.53255822  0.18849864  0.18580467     0.02200
C21         C  0.53326901  0.20239511  0.17324072     0.02200
C22         C  0.51734262  0.20911892  0.16623294    -0.18400
H23         H  0.51783994  0.22013360  0.15698044     0.04200
H24         H  0.51571828  0.17017646  0.19983053     0.04200
C25         C  0.19788508  0.84971586  0.48284171     0.02200
C26         C  0.18447101  0.83651362  0.48239968     0.02200
C27         C  0.17749772  0.83004194  0.49843162    -0.18400
C28         C  0.18455458  0.83532721  0.51492044     0.02200
C29         C  0.19797910  0.84856425  0.51526755     0.02200
C30         C  0.20418572  0.85578509  0.49928041    -0.18400
H31         H  0.21474984  0.86560626  0.49960950     0.04200
H32         H  0.16710267  0.82006052  0.49802568     0.04200
C33         C  0.82971754  0.19006761  0.48442790     0.02200
C34         C  0.84221552  0.20412095  0.48503516     0.02200
C35         C  0.84786572  0.21051681  0.50159368    -0.18400
C36         C  0.84094522  0.20360937  0.51748821     0.02200
C37         C  0.82832011  0.18969195  0.51695837     0.02200
C38         C  0.82298252  0.18297266  0.50037514    -0.18400
H39         H  0.81303923  0.17254970  0.49984849     0.04200
H40         H  0.85737178  0.22134094  0.50212131     0.04200
C41         C  0.84870108  0.83896022  0.48233830     0.02200
C42         C  0.83606728  0.85290014  0.48199823     0.02200
C43         C  0.83013748  0.86027604  0.49811867    -0.18400
C44         C  0.83601260  0.85361891  0.51457581     0.02200
C45         C  0.84852151  0.83953599  0.51488024     0.02200
C46         C  0.85501611  0.83270567  0.49875857    -0.18400
H47         H  0.86435183  0.82172501  0.49900112     0.04200
H48         H  0.82004658  0.87057239  0.49786765     0.04200
C49         C  0.50133950  0.19483404  0.81024950     0.02200
C50         C  0.50094068  0.20786527  0.82385120     0.02200
C51         C  0.51711948  0.21438974  0.83059629    -0.18400
C52         C  0.53357493  0.20847014  0.82403915     0.02200
C53         C  0.53401126  0.19547657  0.81048444     0.02200
C54         C  0.51784883  0.18855235  0.80408264    -0.18400
H55         H  0.51811513  0.17857493  0.79370550     0.04200
H56         H  0.51690584  0.22451137  0.84083643     0.04200
C57         C  0.19201922  0.49962163  0.81112149     0.02200
C58         C  0.20684074  0.50026008  0.82270788     0.02200
C59         C  0.21325002  0.51677301  0.82846519    -0.18400
C60         C  0.20556775  0.53265868  0.82243398     0.02200
C61         C  0.19106312  0.53200179  0.81043637     0.02200
C62         C  0.18428753  0.51547941  0.80514012    -0.18400
H63         H  0.17325327  0.51496104  0.79583681     0.04200
H64         H  0.22462749  0.51728120  0.83734666     0.04200
C65         C  0.50018168  0.83616292  0.16740558     0.02200
C66         C  0.50058411  0.84891544  0.18124579     0.02200
C67         C  0.51697895  0.85584412  0.18688550    -0.18400
C68         C  0.53309871  0.84989127  0.17961168     0.02200
C69         C  0.53285200  0.83698762  0.16596378     0.02200
C70         C  0.51634611  0.83070790  0.15967415    -0.18400
H71         H  0.51613583  0.82072918  0.14930132     0.04200
H72         H  0.51724738  0.86531083  0.19773989     0.04200
C73         C  0.83231586  0.50098261  0.17638685     0.02200
C74         C  0.84398628  0.50205135  0.19110367     0.02200
C75         C  0.84942670  0.51871733  0.19724618    -0.18400
C76         C  0.84272758  0.53440492  0.18978449     0.02200
C77         C  0.83072691  0.53346084  0.17524798     0.02200
C78         C  0.82598004  0.51669993  0.16850976    -0.18400
H79         H  0.81638452  0.51583958  0.15776515     0.04200
H80         H  0.85829746  0.51948694  0.20861206     0.04200
C81         C  0.82582440  0.50151287  0.82665095     0.02200
C82         C  0.83932754  0.50135668  0.81346259     0.02200
C83         C  0.84643804  0.51756638  0.80753427    -0.18400
C84         C  0.83922227  0.53382874  0.81297518     0.02200
C85         C  0.82515562  0.53388749  0.82547265     0.02200
C86         C  0.81908151  0.51779727  0.83261423    -0.18400
H87         H  0.80832857  0.51792094  0.84224581     0.04200
H88         H  0.85702919  0.51752074  0.79772990     0.04200
C89         C  0.50123679  0.83937689  0.81416341     0.02200
C90         C  0.50081857  0.82705947  0.82830037     0.02200
C91         C  0.51687941  0.82136273  0.83600879    -0.18400
C92         C  0.53347704  0.82635883  0.82888672     0.02200
C93         C  0.53379491  0.83878894  0.81472012     0.02200
C94         C  0.51772004  0.84544772  0.80789202    -0.18400
H95         H  0.51804202  0.85463656  0.79680817     0.04200
H96         H  0.51640406  0.81205257  0.84696976     0.04200
N97         N  0.65522148  0.74804147  0.89560329    -0.27400
N98         N  0.67085977  0.74309103  0.88912908    -0.35200
C99         C  0.68021479  0.73493668  0.90198318     0.01000
C100        C  0.67017328  0.73491376  0.91739966     0.07000
C101        C  0.65429115  0.74311245  0.91279790    -0.06100
H102        H  0.69340903  0.72943068  0.90018589     0.07600
H103        H  0.64305372  0.74568823  0.92143395     0.08800
Cu104      Cu  0.67980142  0.74817513  0.86349327     0.44200
Cu105      Cu  0.63613796  0.76209080  0.88111256     0.42000
Cu106      Cu  0.65081499  0.77497090  0.83719673     0.43900
N107        N  0.68617025  0.75631877  0.83789057    -0.34800
N108        N  0.67521713  0.76602335  0.82815388    -0.29000
C109        C  0.68298508  0.76967674  0.81248322    -0.05100
C110        C  0.69969450  0.76203849  0.81242508     0.07100
C111        C  0.70135651  0.75367810  0.82871708     0.00900
H112        H  0.67715428  0.77782462  0.80217028     0.08500
H113        H  0.71285795  0.74655032  0.83365931     0.07600
N114        N  0.62670227  0.78263708  0.84804161    -0.36200
N115        N  0.62087261  0.77753571  0.86382183    -0.28400
C116        C  0.60429610  0.78403459  0.86623389    -0.03600
C117        C  0.59974970  0.79390889  0.85138274     0.05000
C118        C  0.61420130  0.79266366  0.84012421     0.03100
H119        H  0.59613635  0.78166742  0.87784624     0.08200
H120        H  0.61533645  0.79819220  0.82690493     0.07000
N121        N  0.74732229  0.65377301  0.89484970    -0.27400
N122        N  0.74270277  0.66966148  0.88892166    -0.35200
C123        C  0.73477745  0.67876382  0.90211083     0.01000
C124        C  0.73430435  0.66811778  0.91701366     0.07000
C125        C  0.74235991  0.65238215  0.91201319    -0.06100
H126        H  0.72973273  0.69215581  0.90092948     0.07600
H127        H  0.74453459  0.64082515  0.92025699     0.08800
Cu128      Cu  0.74719520  0.67869144  0.86326209     0.44200
Cu129      Cu  0.76042451  0.63475634  0.87938666     0.42000
Cu130      Cu  0.76643557  0.64742145  0.83322819     0.43900
N131        N  0.75311745  0.68471021  0.83702879    -0.34800
N132        N  0.75992364  0.67298879  0.82589186    -0.29000
C133        C  0.76303969  0.68087959  0.81019035    -0.05100
C134        C  0.75787541  0.69843906  0.81146849     0.07100
C135        C  0.75177943  0.70044964  0.82872017     0.00900
H136        H  0.76940508  0.67450846  0.79898204     0.08500
H137        H  0.74709574  0.71254851  0.83488711     0.07600
N138        N  0.77485136  0.62352736  0.84366460    -0.36200
N139        N  0.77325571  0.61886517  0.86053652    -0.28400
C140        C  0.78108395  0.60291075  0.86280458    -0.03600
C141        C  0.78783332  0.59740353  0.84654902     0.05000
C142        C  0.78349842  0.61072685  0.83476077     0.03100
H143        H  0.78168343  0.59580449  0.87528107     0.08200
H144        H  0.78669276  0.61123382  0.82074802     0.07000
N145        N  0.91481820  0.64929993  0.73147095    -0.27400
N146        N  0.90895531  0.66564532  0.72871130    -0.35200
C147        C  0.92147102  0.67514347  0.72031536     0.01000
C148        C  0.93611272  0.66452501  0.71757288     0.07000
C149        C  0.93147503  0.64810599  0.72463801    -0.06100
H150        H  0.92000044  0.68890691  0.71651780     0.07600
H151        H  0.93972694  0.63635052  0.72512041     0.08800
Cu152      Cu  0.88441146  0.67566406  0.73556009     0.44200
Cu153      Cu  0.89955197  0.62982138  0.74488340     0.42000
Cu154      Cu  0.85375463  0.64550963  0.75166456     0.43900
N155        N  0.85846454  0.68290100  0.74049545    -0.34800
N156        N  0.84665529  0.67124164  0.74609246    -0.29000
C157        C  0.83082777  0.67929948  0.74817611    -0.05100
C158        C  0.83282920  0.69693244  0.74353318     0.07100
C159        C  0.85057455  0.69880834  0.73888316     0.00900
H160        H  0.81895570  0.67292822  0.75325232     0.08500
H161        H  0.85724513  0.71082473  0.73469860     0.07600
N162        N  0.86301892  0.62119749  0.75990608    -0.36200
N163        N  0.87946283  0.61509939  0.75806794    -0.28400
C164        C  0.88026542  0.59895145  0.76591708    -0.03600
C165        C  0.86345645  0.59479701  0.77265831     0.05000
C166        C  0.85308543  0.60936365  0.76874509     0.03100
H167        H  0.89211114  0.59078953  0.76658662     0.08200
H168        H  0.83929951  0.61146465  0.77241423     0.07000
N169        N  0.91506411  0.75175184  0.63019038    -0.27400
N170        N  0.90744642  0.74419931  0.64413905    -0.35200
C171        C  0.91961695  0.73467878  0.65308251     0.01000
C172        C  0.93582638  0.73624573  0.64457016     0.07000
C173        C  0.93244819  0.74698491  0.62993052    -0.06100
H174        H  0.91688014  0.72732777  0.66512716     0.07600
H175        H  0.94204455  0.75146652  0.62018555     0.08800
Cu176      Cu  0.88124558  0.74754429  0.65190520     0.44200
Cu177      Cu  0.90127422  0.76909433  0.61300505     0.42000
Cu178      Cu  0.85482342  0.77676655  0.62660230     0.43900
N179        N  0.85559550  0.75423179  0.65927810    -0.34800
N180        N  0.84566541  0.76521239  0.64985054    -0.29000
C181        C  0.83039813  0.76837701  0.65868539    -0.05100
C182        C  0.83078073  0.75880019  0.67434949     0.07100
C183        C  0.84698934  0.75010942  0.67439422     0.00900
H184        H  0.82025474  0.77769662  0.65451269     0.08500
H185        H  0.85252026  0.74217914  0.68503786     0.07600
N186        N  0.86654485  0.78797430  0.60433303    -0.36200
N187        N  0.88329157  0.78567971  0.59925305    -0.28400
C188        C  0.88586489  0.79479950  0.58398400    -0.03600
C189        C  0.86997364  0.80312012  0.57934859     0.05000
C190        C  0.85809771  0.79834160  0.59251269     0.03100
H191        H  0.89811827  0.79473022  0.57640287     0.08200
H192        H  0.84411828  0.80181816  0.59322101     0.07000
N193        N  0.75304963  0.91756272  0.63553791    -0.27400
N194        N  0.74816465  0.90973603  0.65049963    -0.35200
C195        C  0.73784236  0.92075751  0.65998111     0.01000
C196        C  0.73587046  0.93638146  0.65066089     0.07000
C197        C  0.74577606  0.93395239  0.63520196    -0.06100
H198        H  0.73242598  0.91770309  0.67295203     0.07600
H199        H  0.74808890  0.94360415  0.62482419     0.08800
Cu200      Cu  0.75626162  0.88500477  0.65877174     0.44200
Cu201      Cu  0.77018434  0.90545760  0.61693047     0.42000
Cu202      Cu  0.78725803  0.86225438  0.63227265     0.43900
N203        N  0.76649426  0.86073883  0.66598266    -0.34800
N204        N  0.77807928  0.85206108  0.65606624    -0.29000
C205        C  0.78199956  0.83653305  0.66395511    -0.05100
C206        C  0.77234091  0.83550420  0.67959855     0.07100
C207        C  0.76279737  0.85113896  0.68054112     0.00900
H208        H  0.79123760  0.82681425  0.65875302     0.08500
H209        H  0.75364504  0.85512761  0.69091233     0.07600
N210        N  0.79312462  0.87349143  0.60790084    -0.36200
N211        N  0.78712374  0.88890050  0.60192614    -0.28400
C212        C  0.79281357  0.89097209  0.58499131    -0.03600
C213        C  0.80259311  0.87606159  0.58019865     0.05000
C214        C  0.80258567  0.86543506  0.59510848     0.03100
H215        H  0.78940804  0.90207618  0.57654102     0.08200
H216        H  0.80852793  0.85241825  0.59638212     0.07000
N217        N  0.64789321  0.91088470  0.73119239    -0.27400
N218        N  0.66242175  0.90478032  0.72330083    -0.35200
C219        C  0.67011584  0.91794203  0.71404184     0.01000
C220        C  0.66009049  0.93312914  0.71622438     0.07000
C221        C  0.64618104  0.92828516  0.72733614    -0.06100
H222        H  0.68242100  0.91667045  0.70664664     0.07600
H223        H  0.63560684  0.93675093  0.73220510     0.08800
Cu224      Cu  0.67233469  0.87928769  0.72616229     0.44200
Cu225      Cu  0.63104663  0.89489355  0.74649675     0.42000
Cu226      Cu  0.64489379  0.84840959  0.74902555     0.43900
N227        N  0.68058869  0.85372907  0.73203576    -0.34800
N228        N  0.67015569  0.84211971  0.74007513    -0.29000
C229        C  0.67937961  0.82711690  0.74302264    -0.05100
C230        C  0.69645433  0.82948763  0.73661165     0.07100
C231        C  0.69683366  0.84649421  0.72977250     0.00900
H232        H  0.67431979  0.81570064  0.75011894     0.08500
H233        H  0.70820841  0.85330212  0.72415121     0.07600
N234        N  0.62201808  0.85837906  0.76064223    -0.36200
N235        N  0.61687264  0.87513955  0.75996649    -0.28400
C236        C  0.60156446  0.87682801  0.76919779    -0.03600
C237        C  0.59704038  0.86039116  0.77624730     0.05000
C238        C  0.61029295  0.84906360  0.77035490     0.03100
H239        H  0.59410031  0.88904316  0.77025719     0.08200
H240        H  0.61142506  0.83500834  0.77302180     0.07000
C241        C  0.75475943  0.78012663  0.74494852     0.02200
C242        C  0.75416365  0.76716271  0.75853265     0.02200
C243        C  0.76777617  0.75422798  0.75973812     0.02200
C244        C  0.78166301  0.75391797  0.74704884     0.02200
C245        C  0.78241889  0.76694807  0.73354362     0.02200
C246        C  0.76933789  0.78048789  0.73292937     0.02200
C247        C  0.70503221  0.69055082  0.98438380     0.02200
C248        C  0.69102068  0.70310720  0.98420505     0.02200
C249        C  0.68427259  0.70957324  0.00031904    -0.18400
C250        C  0.69158001  0.70426953  0.01665022     0.02200
C251        C  0.70562593  0.69169814  0.01685788     0.02200
C252        C  0.71186348  0.68468517  0.00073578    -0.18400
H253        H  0.72262711  0.67508529  0.00089026     0.04200
H254        H  0.67404335  0.71973955  0.00010102     0.04200
C255        C  0.68621934  0.00000320  0.68905753     0.02200
C256        C  0.70111009  0.99958105  0.67740864     0.02200
C257        C  0.70854734  0.01553598  0.67134626    -0.18400
C258        C  0.70170462  0.03196528  0.67666352     0.02200
C259        C  0.68679560  0.03249744  0.68813157     0.02200
C260        C  0.67899832  0.01656152  0.69386965    -0.18400
H261        H  0.66748162  0.01708663  0.70254898     0.04200
H262        H  0.72000531  0.01515982  0.66256439     0.04200
C263        C  0.00060925  0.70218600  0.66925160     0.02200
C264        C  0.00022009  0.68989679  0.68345782     0.02200
C265        C  0.01624889  0.68408036  0.69102004    -0.18400
C266        C  0.03273924  0.69051809  0.68513313     0.02200
C267        C  0.03333432  0.70264493  0.67071417     0.02200
C268        C  0.01718952  0.70792363  0.66271077    -0.18400
H269        H  0.01748031  0.71712154  0.65165250     0.04200
H270        H  0.01584596  0.67486342  0.70208181     0.04200
N271        N  0.77867408  0.41547313  0.86691154    -0.27400
N272        N  0.78280481  0.40950816  0.85089064    -0.35200
C273        C  0.79156682  0.42211577  0.84185997     0.01000
C274        C  0.79334298  0.43682842  0.85258375     0.07000
C275        C  0.78496522  0.43222595  0.86843545    -0.06100
H276        H  0.79633144  0.42065924  0.82836508     0.07600
H277        H  0.78320547  0.44056320  0.88000245     0.08800
Cu278      Cu  0.77729176  0.38447817  0.84129966     0.44200
Cu279      Cu  0.76436303  0.40001313  0.88542833     0.42000
Cu280      Cu  0.76158515  0.35308279  0.87236793     0.43900
N281        N  0.77384709  0.35811839  0.83483793    -0.34800
N282        N  0.76873395  0.34621405  0.84664322    -0.29000
C283        C  0.76774911  0.33026596  0.83869719    -0.05100
C284        C  0.77246422  0.33229940  0.82102976     0.07100
C285        C  0.77609546  0.35016303  0.81900052     0.00900
H286        H  0.76318542  0.31824727  0.84509682     0.08500
H287        H  0.77988360  0.35690460  0.80688255     0.07600
N288        N  0.75153264  0.36318473  0.89599320    -0.36200
N289        N  0.75166625  0.38014404  0.90059695    -0.28400
C290        C  0.74314019  0.38180717  0.91633473    -0.03600
C291        C  0.73756242  0.36511453  0.92183919     0.05000
C292        C  0.74325334  0.35369369  0.90867507     0.03100
H293        H  0.74150150  0.39415936  0.92346565     0.08200
H294        H  0.74139837  0.33946946  0.90827899     0.07000
N295        N  0.61832112  0.25497156  0.86757214    -0.27400
N296        N  0.62442759  0.25270313  0.85123461    -0.35200
C297        C  0.61199260  0.24469887  0.84127144     0.01000
C298        C  0.59729921  0.24144909  0.85172835     0.07000
C299        C  0.60167050  0.24817528  0.86837859    -0.06100
H300        H  0.61363987  0.24128331  0.82739946     0.07600
H301        H  0.59328722  0.24838065  0.88007027     0.08800
Cu302      Cu  0.64949174  0.25932772  0.84248152     0.44200
Cu303      Cu  0.63329498  0.26762908  0.88751291     0.42000
Cu304      Cu  0.67903552  0.27849943  0.87274323     0.43900
N305        N  0.67568156  0.26408230  0.83613128    -0.34800
N306        N  0.68696254  0.27117401  0.84753226    -0.29000
C307        C  0.70305883  0.27254892  0.83980474    -0.05100
C308        C  0.70179166  0.26579170  0.82271927     0.07100
C309        C  0.68418297  0.26070114  0.82081686     0.00900
H310        H  0.71463590  0.27844293  0.84601703     0.08500
H311        H  0.67799727  0.25495103  0.80916706     0.07600
N312        N  0.66866007  0.28453715  0.89742476    -0.36200
N313        N  0.65239171  0.28081993  0.90314280    -0.28400
C314        C  0.65082524  0.28683672  0.91999216    -0.03600
C315        C  0.66696396  0.29436999  0.92505818     0.05000
C316        C  0.67774647  0.29287391  0.91028576     0.03100
H317        H  0.63891800  0.28566104  0.92801762     0.08200
H318        H  0.69124094  0.29772382  0.90882872     0.07000
N319        N  0.90867527  0.38678963  0.72920436    -0.27400
N320        N  0.90204628  0.37191028  0.72261870    -0.35200
C321        C  0.91458908  0.36370547  0.71290045     0.01000
C322        C  0.92988569  0.37381535  0.71337377     0.07000
C323        C  0.92580136  0.38826624  0.72397971    -0.06100
H324        H  0.91303362  0.35076943  0.70687076     0.07600
H325        H  0.93479022  0.39869737  0.72813313     0.08800
Cu326      Cu  0.87740410  0.36158390  0.72907386     0.44200
Cu327      Cu  0.89438870  0.40361588  0.74606396     0.42000
Cu328      Cu  0.85417078  0.38396604  0.76396375     0.43900
N329        N  0.85394430  0.35229087  0.73993386    -0.34800
N330        N  0.84563863  0.36040680  0.75310897    -0.29000
C331        C  0.83126165  0.35091137  0.75780449    -0.05100
C332        C  0.83054221  0.33617809  0.74700072     0.07100
C333        C  0.84507096  0.33735696  0.73583318     0.00900
H334        H  0.82216676  0.35436584  0.76841335     0.08500
H335        H  0.84913669  0.32788803  0.72581637     0.07600
N336        N  0.86289361  0.40901363  0.77046813    -0.36200
N337        N  0.87710568  0.41668785  0.76346337    -0.28400
C338        C  0.87788960  0.43356841  0.76930394    -0.03600
C339        C  0.86367754  0.43637793  0.78071142     0.05000
C340        C  0.85442826  0.42059941  0.78106738     0.03100
H341        H  0.88791145  0.44312166  0.76540172     0.08200
H342        H  0.84206269  0.41793512  0.78796980     0.07000
N343        N  0.91304612  0.28264951  0.63497541    -0.27400
N344        N  0.90617771  0.28769098  0.65036479    -0.35200
C345        C  0.91814670  0.29738809  0.65932448     0.01000
C346        C  0.93338067  0.29879851  0.64920514     0.07000
C347        C  0.92975997  0.28924735  0.63380076    -0.06100
H348        H  0.91602249  0.30272205  0.67250818     0.07600
H349        H  0.93882277  0.28668620  0.62292190     0.08800
Cu350      Cu  0.88147570  0.28085235  0.66000566     0.44200
Cu351      Cu  0.89930168  0.26610355  0.61709756     0.42000
Cu352      Cu  0.85583270  0.25178490  0.63449674     0.43900
N353        N  0.85692544  0.27204248  0.66829096    -0.34800
N354        N  0.84722280  0.26111302  0.65862014    -0.29000
C355        C  0.83197316  0.25752253  0.66722228    -0.05100
C356        C  0.83216329  0.26673540  0.68308946     0.07100
C357        C  0.84823740  0.27567252  0.68344944     0.00900
H358        H  0.82175049  0.24858461  0.66246155     0.08500
H359        H  0.85325742  0.28412041  0.69394635     0.07600
N360        N  0.86554457  0.24509687  0.60989762    -0.36200
N361        N  0.88115755  0.24990522  0.60325639    -0.28400
C362        C  0.88231532  0.24356550  0.58650647    -0.03600
C363        C  0.86665924  0.23452297  0.58265036     0.05000
C364        C  0.85638347  0.23587461  0.59770970     0.03100
H365        H  0.89336813  0.24594210  0.57758547     0.08200
H366        H  0.84298719  0.23087602  0.59955834     0.07000
N367        N  0.75259930  0.11647028  0.63814046    -0.27400
N368        N  0.75006150  0.12212726  0.65461173    -0.35200
C369        C  0.74168409  0.10955229  0.66407022     0.01000
C370        C  0.73867357  0.09515110  0.65321182     0.07000
C371        C  0.74558827  0.09999272  0.63676536    -0.06100
H372        H  0.73798267  0.11084876  0.67790998     0.07600
H373        H  0.74579557  0.09200153  0.62482424     0.08800
Cu374      Cu  0.75757329  0.14654852  0.66444605     0.44200
Cu375      Cu  0.76615914  0.13165921  0.61874536     0.42000
Cu376      Cu  0.77850858  0.17606381  0.63480949     0.43900
N377        N  0.76510299  0.17175288  0.67200236    -0.34800
N378        N  0.77259595  0.18299958  0.66082831    -0.29000
C379        C  0.77524722  0.19855236  0.66919401    -0.05100
C380        C  0.76913904  0.19689289  0.68646935     0.07100
C381        C  0.76290445  0.17971272  0.68784270     0.00900
H382        H  0.78110309  0.21019678  0.66315438     0.08500
H383        H  0.75681634  0.17360106  0.69934759     0.07600
N384        N  0.78416212  0.16664325  0.60950974    -0.36200
N385        N  0.78018938  0.15062946  0.60344045    -0.28400
C386        C  0.78619353  0.14937242  0.58651535    -0.03600
C387        C  0.79399973  0.16543011  0.58176684     0.05000
C388        C  0.79250919  0.17591819  0.59673509     0.03100
H389        H  0.78464074  0.13780746  0.57814434     0.08200
H390        H  0.79716496  0.18941734  0.59824118     0.07000
N391        N  0.61942993  0.15456056  0.76315273    -0.27400
N392        N  0.62802834  0.16642774  0.77289549    -0.35200
C393        C  0.61633800  0.17518984  0.78318377     0.01000
C394        C  0.59951011  0.16866326  0.77980247     0.07000
C395        C  0.60187158  0.15569283  0.76693694    -0.06100
H396        H  0.61979726  0.18587935  0.79214008     0.07600
H397        H  0.59159977  0.14767110  0.76082745     0.08800
Cu398      Cu  0.65493143  0.17191284  0.77103176     0.44200
Cu399      Cu  0.63227263  0.13735122  0.74527107     0.42000
Cu400      Cu  0.67885735  0.14875680  0.73783263     0.43900
N401        N  0.68062471  0.17855280  0.76387764    -0.34800
N402        N  0.68937838  0.17013636  0.75120752    -0.29000
C403        C  0.70475232  0.17865829  0.74794859    -0.05100
C404        C  0.70566366  0.19307265  0.75920257     0.07100
C405        C  0.69017262  0.19270710  0.76908024     0.00900
H406        H  0.71404442  0.17521196  0.73750747     0.08500
H407        H  0.68563870  0.20261376  0.77845112     0.07600
N408        N  0.66665393  0.12675263  0.72714294    -0.36200
N409        N  0.64982319  0.12216812  0.72968846    -0.28400
C410        C  0.64719749  0.10604141  0.72230276    -0.03600
C411        C  0.66316842  0.10036681  0.71485244     0.05000
C412        C  0.67511181  0.11385308  0.71825030     0.03100
H413        H  0.63498131  0.09849011  0.72337728     0.08200
H414        H  0.68924941  0.11383821  0.71537964     0.07000
C415        C  0.76737349  0.27899858  0.76599499     0.02200
C416        C  0.75506674  0.26488915  0.76731977     0.02200
C417        C  0.75585919  0.25057121  0.75515058     0.02200
C418        C  0.76853926  0.25067230  0.74126046     0.02200
C419        C  0.78066051  0.26492581  0.73979699     0.02200
C420        C  0.77989682  0.27920264  0.75198074     0.02200
N421        N  0.37921442  0.74870809  0.89547015    -0.27400
N422        N  0.36310852  0.74514133  0.88919222    -0.35200
C423        C  0.35345871  0.73711355  0.90187767     0.01000
C424        C  0.36386266  0.73530944  0.91692163     0.07000
C425        C  0.38013804  0.74287753  0.91242146    -0.06100
H426        H  0.33969512  0.73309281  0.90033552     0.07600
H427        H  0.39155654  0.74464632  0.92102893     0.08800
Cu428      Cu  0.35392145  0.75120128  0.86391548     0.44200
Cu429      Cu  0.39887611  0.76216560  0.88084915     0.42000
Cu430      Cu  0.38611071  0.76881469  0.83478499     0.43900
N431        N  0.34845167  0.75635957  0.83742372    -0.34800
N432        N  0.36087075  0.76223163  0.82648615    -0.29000
C433        C  0.35400837  0.76379535  0.81009162    -0.05100
C434        C  0.33635507  0.75871172  0.81076253     0.07100
C435        C  0.33315942  0.75420340  0.82830115     0.00900
H436        H  0.36124514  0.76858432  0.79861814     0.08500
H437        H  0.32075504  0.74951401  0.83393696     0.07600
N438        N  0.40988392  0.77732568  0.84536255    -0.36200
N439        N  0.41487146  0.77529847  0.86209747    -0.28400
C440        C  0.43114273  0.78272111  0.86411294    -0.03600
C441        C  0.43658522  0.78941836  0.84777744     0.05000
C442        C  0.42262693  0.78594747  0.83636056     0.03100
H443        H  0.43858277  0.78297192  0.87643316     0.08200
H444        H  0.42167666  0.78955557  0.82247546     0.07000
N445        N  0.27655519  0.65493821  0.89670818    -0.27400
N446        N  0.28155027  0.67054838  0.89033218    -0.35200
C447        C  0.29014703  0.67968288  0.90305263     0.01000
C448        C  0.29071541  0.66946429  0.91821276     0.07000
C449        C  0.28191284  0.65386899  0.91383413    -0.06100
H450        H  0.29558513  0.69286667  0.90137388     0.07600
H451        H  0.27959754  0.64261153  0.92244091     0.08800
Cu452      Cu  0.27727465  0.67943751  0.86464333     0.44200
Cu453      Cu  0.26298595  0.63572882  0.88143571     0.42000
Cu454      Cu  0.26273914  0.64687074  0.83437636     0.43900
N455        N  0.27371912  0.68471923  0.83788949    -0.34800
N456        N  0.26894549  0.67225277  0.82653836    -0.29000
C457        C  0.26768651  0.67927284  0.81019151    -0.05100
C458        C  0.27163735  0.69712152  0.81135437     0.07100
C459        C  0.27555225  0.70013692  0.82908946     0.00900
H460        H  0.26370748  0.67202912  0.79842576     0.08500
H461        H  0.27951492  0.71254817  0.83512861     0.07600
N462        N  0.25215950  0.62383598  0.84453212    -0.36200
N463        N  0.25143965  0.61964736  0.86158893    -0.28400
C464        C  0.24282724  0.60397027  0.86313582    -0.03600
C465        C  0.23798769  0.59820486  0.84622651     0.05000
C466        C  0.24426663  0.61111633  0.83487160     0.03100
H467        H  0.24066851  0.59706875  0.87555297     0.08200
H468        H  0.24310469  0.61131321  0.82053634     0.07000
N469        N  0.41858047  0.87645712  0.75867229    -0.27400
N470        N  0.41304514  0.85985985  0.76016439    -0.35200
C471        C  0.42495279  0.85040080  0.76948039     0.01000
C472        C  0.43899968  0.86128316  0.77402209     0.07000
C473        C  0.43442535  0.87785244  0.76719101    -0.06100
H474        H  0.42341651  0.83650792  0.77272706     0.07600
H475        H  0.44223301  0.88988568  0.76802864     0.08800
Cu476      Cu  0.38987009  0.84966403  0.74970854     0.44200
Cu477      Cu  0.40391328  0.89584947  0.74446479     0.42000
Cu478      Cu  0.36253236  0.87765131  0.72475840     0.43900
N479        N  0.36546096  0.84153318  0.74032330    -0.34800
N480        N  0.35486984  0.85215783  0.73124377    -0.29000
C481        C  0.33928276  0.84384292  0.72827135    -0.05100
C482        C  0.34026179  0.82715982  0.73589283     0.07100
C483        C  0.35709253  0.82607604  0.74325102     0.00900
H484        H  0.32806024  0.84956928  0.72128665     0.08500
H485        H  0.36259863  0.81511941  0.75074614     0.07600
N486        N  0.37105015  0.90354481  0.72187702    -0.36200
N487        N  0.38550254  0.91065374  0.72907131    -0.28400
C488        C  0.38548845  0.92821335  0.72530494    -0.03600
C489        C  0.37019479  0.93220695  0.71557852     0.05000
C490        C  0.36166030  0.91614080  0.71345816     0.03100
H491        H  0.39550373  0.93750432  0.72982669     0.08200
H492        H  0.34923330  0.91375192  0.70655872     0.07000
N493        N  0.28065605  0.91502083  0.63518796    -0.27400
N494        N  0.28434878  0.90828548  0.65102715    -0.35200
C495        C  0.29362353  0.92017363  0.66057032     0.01000
C496        C  0.29610220  0.93505561  0.65027849     0.07000
C497        C  0.28766378  0.93147444  0.63429529    -0.06100
H498        H  0.29818519  0.91812826  0.67406118     0.07600
H499        H  0.28646872  0.94026379  0.62299385     0.08800
Cu500      Cu  0.27750479  0.88321093  0.65958602     0.44200
Cu501      Cu  0.26600092  0.90153521  0.61563780     0.42000
Cu502      Cu  0.25935387  0.85512600  0.62703868     0.43900
N503        N  0.27206956  0.85686224  0.66442707    -0.34800
N504        N  0.26593693  0.84618187  0.65195830    -0.29000
C505        C  0.26415571  0.82977429  0.65865151    -0.05100
C506        C  0.26919309  0.83028365  0.67629593     0.07100
C507        C  0.27427624  0.84761169  0.67951535     0.00900
H508        H  0.25930204  0.81841436  0.65130945     0.08500
H509        H  0.27946092  0.85302626  0.69179368     0.07600
N510        N  0.24972938  0.86676182  0.60430125    -0.36200
N511        N  0.25170266  0.88358815  0.59978767    -0.28400
C512        C  0.24334657  0.88623377  0.58409237    -0.03600
C513        C  0.23572551  0.87027260  0.57870426     0.05000
C514        C  0.24017710  0.85834065  0.59186848     0.03100
H515        H  0.24328571  0.89867781  0.57695083     0.08200
H516        H  0.23672600  0.84441716  0.59239756     0.07000
N517        N  0.15070078  0.61885807  0.76586791    -0.27400
N518        N  0.16735939  0.62406240  0.76843668    -0.35200
C519        C  0.17654096  0.61108683  0.77651924     0.01000
C520        C  0.16517392  0.59705272  0.77943524     0.07000
C521        C  0.14886946  0.60232166  0.77250950    -0.06100
H522        H  0.19055192  0.61177437  0.77988778     0.07600
H523        H  0.13675554  0.59455607  0.77192539     0.08800
Cu524      Cu  0.17766620  0.64823407  0.76084265     0.44200
Cu525      Cu  0.13180694  0.63440423  0.75240312     0.42000
Cu526      Cu  0.14950660  0.67713498  0.73690264     0.43900
N527        N  0.18592236  0.67278919  0.75213722    -0.34800
N528        N  0.17541667  0.68369116  0.74326954    -0.29000
C529        C  0.18454996  0.69848617  0.73921095    -0.05100
C530        C  0.20169373  0.69660105  0.74568586     0.07100
C531        C  0.20207427  0.68023641  0.75392976     0.00900
H532        H  0.17924492  0.70957122  0.73176356     0.08500
H533        H  0.21326031  0.67415086  0.76066147     0.07600
N534        N  0.12398768  0.66820397  0.73197728    -0.36200
N535        N  0.11725838  0.65292395  0.73743147    -0.28400
C536        C  0.10026479  0.65177593  0.73161750    -0.03600
C537        C  0.09627755  0.66701881  0.72200219     0.05000
C538        C  0.11161573  0.67709615  0.72268670     0.03100
H539        H  0.09142893  0.64079914  0.73442344     0.08200
H540        H  0.11370986  0.68998361  0.71671533     0.07000
N541        N  0.12038606  0.74747095  0.63068351    -0.27400
N542        N  0.12868552  0.73890201  0.64362299    -0.35200
C543        C  0.11698087  0.72834825  0.65207920     0.01000
C544        C  0.10047137  0.73034496  0.64417569     0.07000
C545        C  0.10306750  0.74270248  0.63078224    -0.06100
H546        H  0.12006608  0.72051759  0.66373116     0.07600
H547        H  0.09300900  0.74810655  0.62200708     0.08800
Cu548      Cu  0.15487174  0.74345996  0.65108627     0.44200
Cu549      Cu  0.13285227  0.76588614  0.61393353     0.42000
Cu550      Cu  0.17649405  0.77960631  0.62894361     0.43900
N551        N  0.17961205  0.75311583  0.65851957    -0.34800
N552        N  0.18729978  0.76676986  0.65061515    -0.29000
C553        C  0.20256561  0.77068107  0.65909664    -0.05100
C554        C  0.20454229  0.75886062  0.67294049     0.07100
C555        C  0.18982325  0.74789328  0.67225141     0.00900
H556        H  0.21139073  0.78148788  0.65562403     0.08500
H557        H  0.18649214  0.73731169  0.68137556     0.07600
N558        N  0.16472444  0.78904235  0.60604864    -0.36200
N559        N  0.14904652  0.78374460  0.59998790    -0.28400
C560        C  0.14639424  0.79108047  0.58383866    -0.03600
C561        C  0.16098065  0.80166502  0.57986208     0.05000
C562        C  0.17233050  0.79994991  0.59416164     0.03100
H563        H  0.13501026  0.78847293  0.57539891     0.08200
H564        H  0.18558760  0.80547362  0.59541832     0.07000
C565        C  0.27369105  0.77180472  0.72530375     0.02200
C566        C  0.28701475  0.77205251  0.73859778     0.02200
C567        C  0.28655886  0.75947883  0.75248383     0.02200
C568        C  0.27304904  0.74648128  0.75286655     0.02200
C569        C  0.25967751  0.74633670  0.73971083     0.02200
C570        C  0.26022106  0.75871769  0.72565542     0.02200
C571        C  0.32903235  0.99942250  0.67577982     0.02200
C572        C  0.34382530  0.99915813  0.68752967     0.02200
C573        C  0.35074469  0.01536089  0.69372741    -0.18400
C574        C  0.34334588  0.03166927  0.68846046     0.02200
C575        C  0.32878494  0.03187871  0.67652961     0.02200
C576        C  0.32195899  0.01575682  0.67019992    -0.18400
H577        H  0.31077081  0.01591181  0.66106350     0.04200
H578        H  0.36152690  0.01527684  0.70333007     0.04200
N579        N  0.37913872  0.27731046  0.90242228    -0.27400
N580        N  0.36233190  0.27857774  0.89718138    -0.35200
C581        C  0.35275545  0.28697862  0.90966415     0.01000
C582        C  0.36388504  0.29153820  0.92353348     0.07000
C583        C  0.38056032  0.28505899  0.91857201    -0.06100
H584        H  0.33869004  0.28996505  0.90849573     0.07600
H585        H  0.39278266  0.28579229  0.92616702     0.08800
Cu586      Cu  0.35234825  0.27051501  0.87293625     0.44200
Cu587      Cu  0.39926329  0.26537294  0.88679185     0.42000
Cu588      Cu  0.38387417  0.25652022  0.84156717     0.43900
N589        N  0.34554595  0.26533172  0.84688786    -0.34800
N590        N  0.35753659  0.26048766  0.83503086    -0.29000
C591        C  0.34963431  0.25873258  0.81911244    -0.05100
C592        C  0.33177776  0.26288205  0.82104200     0.07100
C593        C  0.32959641  0.26680924  0.83887789     0.00900
H594        H  0.35637533  0.25456332  0.80711315     0.08500
H595        H  0.31740706  0.27077723  0.84545957     0.07600
N596        N  0.40915475  0.25076563  0.85050786    -0.36200
N597        N  0.41509644  0.25340069  0.86687110    -0.28400
C598        C  0.43201169  0.24721275  0.86778280    -0.03600
C599        C  0.43668863  0.24054829  0.85119243     0.05000
C600        C  0.42190607  0.24306414  0.84067288     0.03100
H601        H  0.44029534  0.24760121  0.87955022     0.08200
H602        H  0.42043842  0.23940431  0.82684217     0.07000
N603        N  0.28605797  0.38380207  0.89764636    -0.27400
N604        N  0.28888390  0.36725139  0.89249230    -0.35200
C605        C  0.29672656  0.35814392  0.90566573     0.01000
C606        C  0.29910021  0.36938567  0.91986169     0.07000
C607        C  0.29213983  0.38557289  0.91446409    -0.06100
H608        H  0.30017820  0.34422302  0.90503918     0.07600
H609        H  0.29126285  0.39758856  0.92227310     0.08800
Cu610      Cu  0.28195562  0.35685803  0.86816008     0.44200
Cu611      Cu  0.27335927  0.40266024  0.88133661     0.42000
Cu612      Cu  0.26545459  0.38647869  0.83587547     0.43900
N613        N  0.27544320  0.34878053  0.84285661    -0.34800
N614        N  0.26979215  0.35991323  0.83055478    -0.29000
C615        C  0.26653244  0.35084573  0.81551355    -0.05100
C616        C  0.27008454  0.33311153  0.81866548     0.07100
C617        C  0.27587448  0.33230290  0.83609137     0.00900
H618        H  0.26147501  0.35663602  0.80335816     0.08500
H619        H  0.28013047  0.32064635  0.84332298     0.07600
N620        N  0.25784303  0.41123754  0.84500477    -0.36200
N621        N  0.26008126  0.41718251  0.86141324    -0.28400
C622        C  0.25227140  0.43328226  0.86267387    -0.03600
C623        C  0.24477032  0.43753499  0.84630740     0.05000
C624        C  0.24876280  0.42329708  0.83548105     0.03100
H625        H  0.25217257  0.44133424  0.87457214     0.08200
H626        H  0.24495270  0.42161767  0.82171144     0.07000
N627        N  0.26049192  0.15493214  0.60102962    -0.27400
N628        N  0.25978449  0.17162499  0.60640237    -0.35200
C629        C  0.25150082  0.18149684  0.59406732     0.01000
C630        C  0.24639045  0.17058339  0.58027988     0.07000
C631        C  0.25240529  0.15379984  0.58503103    -0.06100
H632        H  0.24855441  0.19547428  0.59548419     0.07600
H633        H  0.25075955  0.14164571  0.57756829     0.08800
Cu634      Cu  0.26681614  0.18032356  0.63137856     0.44200
Cu635      Cu  0.27147712  0.13456244  0.61666373     0.42000
Cu636      Cu  0.27256562  0.14658737  0.66367465     0.43900
N637        N  0.26740989  0.18552330  0.65823476    -0.34800
N638        N  0.26864845  0.17290733  0.67033718    -0.29000
C639        C  0.26782835  0.18028913  0.68658336    -0.05100
C640        C  0.26618055  0.19843603  0.68450091     0.07100
C641        C  0.26582352  0.20129370  0.66637211     0.00900
H642        H  0.26875989  0.17304700  0.69896358     0.08500
H643        H  0.26432096  0.21385863  0.65958837     0.07600
N644        N  0.28123469  0.12247726  0.65381197    -0.36200
N645        N  0.28176087  0.11811281  0.63677841    -0.28400
C646        C  0.28980401  0.10214215  0.63527901    -0.03600
C647        C  0.29441987  0.09630269  0.65218774     0.05000
C648        C  0.28862554  0.10946935  0.66352144     0.03100
H649        H  0.29205173  0.09526671  0.62285916     0.08200
H650        H  0.29014016  0.10980713  0.67781882     0.07000
N651        N  0.38244695  0.11866680  0.73413633    -0.27400
N652        N  0.36593537  0.12420413  0.73132544    -0.35200
C653        C  0.35631267  0.11102806  0.72414636     0.01000
C654        C  0.36710183  0.09632846  0.72231442     0.07000
C655        C  0.38369852  0.10167099  0.72855616    -0.06100
H656        H  0.34245541  0.11217123  0.72031537     0.07600
H657        H  0.39567863  0.09371177  0.72923987     0.08800
Cu658      Cu  0.35637278  0.14930343  0.73672494     0.44200
Cu659      Cu  0.40204373  0.13466914  0.74613402     0.42000
Cu660      Cu  0.38626614  0.17988131  0.75541437     0.43900
N661        N  0.34915421  0.17512790  0.74223904    -0.34800
N662        N  0.36048082  0.18672644  0.74892744    -0.29000
C663        C  0.35201680  0.20220912  0.75159822    -0.05100
C664        C  0.33448112  0.20021756  0.74623898     0.07100
C665        C  0.33309904  0.18283172  0.74052284     0.00900
H666        H  0.35797579  0.21374925  0.75773893     0.08500
H667        H  0.32122332  0.17618047  0.73580151     0.07600
N668        N  0.41089075  0.17022979  0.76280311    -0.36200
N669        N  0.41701897  0.15409253  0.75959187    -0.28400
C670        C  0.43360431  0.15283881  0.76650877    -0.03600
C671        C  0.43792523  0.16891599  0.77455428     0.05000
C672        C  0.42317969  0.17952512  0.77177751     0.03100
H673        H  0.44198524  0.14122733  0.76538183     0.08200
H674        H  0.42144192  0.19312121  0.77603957     0.07000
N675        N  0.15119833  0.25669471  0.60331709    -0.27400
N676        N  0.16754324  0.25411487  0.60946016    -0.35200
C677        C  0.17736462  0.24572838  0.59719247     0.01000
C678        C  0.16696573  0.24284138  0.58239804     0.07000
C679        C  0.15031802  0.24975579  0.58674591    -0.06100
H680        H  0.19116772  0.24194434  0.59898217     0.07600
H681        H  0.13858889  0.24999860  0.57837320     0.08800
Cu682      Cu  0.17705679  0.26148150  0.63401416     0.44200
Cu683      Cu  0.13132757  0.26998748  0.61815626     0.42000
Cu684      Cu  0.14794260  0.28324103  0.66233397     0.43900
N685        N  0.18441356  0.26833615  0.65942116    -0.34800
N686        N  0.17327807  0.27647083  0.67023634    -0.29000
C687        C  0.18095723  0.27825247  0.68625895    -0.05100
C688        C  0.19774538  0.27070786  0.68543288     0.07100
C689        C  0.19960316  0.26473532  0.66816484     0.00900
H690        H  0.17467931  0.28432860  0.69768030     0.08500
H691        H  0.21086284  0.25770701  0.66257922     0.07600
N692        N  0.12251287  0.28790248  0.65325449    -0.36200
N693        N  0.11601681  0.28346404  0.63750604    -0.28400
C694        C  0.09877503  0.28872727  0.63685965    -0.03600
C695        C  0.09436191  0.29645047  0.65308570     0.05000
C696        C  0.10982823  0.29584666  0.66292831     0.03100
H697        H  0.09002994  0.28684321  0.62557949     0.08200
H698        H  0.11183132  0.30095906  0.67621093     0.07000
N699        N  0.11240946  0.37693438  0.74888107    -0.27400
N700        N  0.11770193  0.36041544  0.74611553    -0.35200
C701        C  0.10499422  0.35161297  0.73718658     0.01000
C702        C  0.09084002  0.36293006  0.73416832     0.07000
C703        C  0.09606544  0.37899254  0.74158898    -0.06100
H704        H  0.10631211  0.33809012  0.73256677     0.07600
H705        H  0.08863793  0.39129202  0.74148676     0.08800
Cu706      Cu  0.14257621  0.35021988  0.75228278     0.44200
Cu707      Cu  0.12846870  0.39599176  0.76146113     0.42000
Cu708      Cu  0.17502483  0.38180099  0.76372937     0.43900
N709        N  0.16928966  0.34376502  0.75463847    -0.34800
N710        N  0.18149293  0.35587610  0.75813185    -0.29000
C711        C  0.19766647  0.34823449  0.75824750    -0.05100
C712        C  0.19551969  0.33040072  0.75461130     0.07100
C713        C  0.17733966  0.32795890  0.75256341     0.00900
H714        H  0.20999095  0.35505633  0.76128010     0.08500
H715        H  0.17050486  0.31564774  0.74970865     0.07600
N716        N  0.16605018  0.40629461  0.77185757    -0.36200
N717        N  0.14923242  0.41160687  0.77172586    -0.28400
C718        C  0.14854870  0.42826896  0.77827568    -0.03600
C719        C  0.16578475  0.43360643  0.78236407     0.05000
C720        C  0.17642759  0.41928470  0.77826947     0.03100
H721        H  0.13651783  0.43609305  0.77948464     0.08200
H722        H  0.19074374  0.41835015  0.77980610     0.07000
C723        C  0.24978359  0.27620832  0.75517822     0.02200
C724        C  0.26333463  0.27591775  0.76815057     0.02200
C725        C  0.27617629  0.26224671  0.76804619     0.02200
C726        C  0.27593529  0.24926774  0.75451024     0.02200
C727        C  0.26250299  0.24971987  0.74130641     0.02200
C728        C  0.24963271  0.26341565  0.74149597     0.02200
C729        C  0.99714942  0.34563183  0.68887963     0.02200
C730        C  0.99752382  0.33210080  0.67580550     0.02200
C731        C  0.01394442  0.32543088  0.66997644    -0.18400
C732        C  0.03004955  0.33122771  0.67746525     0.02200
C733        C  0.02969870  0.34432912  0.69096752     0.02200
C734        C  0.01333684  0.35184110  0.69592250    -0.18400
H735        H  0.01318441  0.36221544  0.70589866     0.04200
H736        H  0.01415884  0.31504206  0.66000529     0.04200
C737        C  0.33943516  0.32877131  0.98640202     0.02200
C738        C  0.32660014  0.34257326  0.98634864    -0.07400
C739        C  0.32069948  0.34959222  0.00265867    -0.18400
C740        C  0.32696457  0.34286562  0.01888896     0.02200
C741        C  0.33988579  0.32925630  0.01880205     0.02200
C742        C  0.34609064  0.32249954  0.00261641    -0.18400
H743        H  0.35578550  0.31182500  0.00265841     0.04200
H744        H  0.31086153  0.36012541  0.00273609     0.04200
C745        C  0.33683118  0.03416696  0.30675546     0.02200
C746        C  0.32430553  0.03411068  0.32087683     0.02200
C747        C  0.31856599  0.01784960  0.32787219    -0.18400
C748        C  0.32421614  0.00161244  0.32060762     0.02200
C749        C  0.33738761  0.00164978  0.30713212     0.02200
C750        C  0.34376779  0.01791577  0.30071635    -0.18400
H751        H  0.35370122  0.01789567  0.29024995     0.04200
H752        H  0.30884710  0.01784044  0.33853935     0.04200
N753        N  0.28149093  0.38120651  0.10623871    -0.27400
N754        N  0.28427599  0.36496791  0.11232107    -0.35200
C755        C  0.29213336  0.35522596  0.09956661     0.01000
C756        C  0.29450544  0.36578774  0.08474436     0.07000
C757        C  0.28776012  0.38223095  0.08946934    -0.06100
H758        H  0.29585051  0.34143078  0.10098024     0.07600
H759        H  0.28696256  0.39390057  0.08114370     0.08800
Cu760      Cu  0.27754892  0.35640980  0.13768725     0.44200
Cu761      Cu  0.26777979  0.40066332  0.12054739     0.42000
Cu762      Cu  0.25177048  0.38606339  0.16395168     0.43900
N763        N  0.27088245  0.35131201  0.16396993    -0.34800
N764        N  0.26157420  0.36248184  0.17379468    -0.29000
C765        C  0.25992747  0.35587527  0.19031512    -0.05100
C766        C  0.26838946  0.33959064  0.19082320     0.07100
C767        C  0.27532512  0.33719272  0.17393462     0.00900
H768        H  0.25297318  0.36237568  0.20109920     0.08500
H769        H  0.28330467  0.32616606  0.16931415     0.07600
N770        N  0.24429620  0.40950680  0.15197326    -0.36200
N771        N  0.25063853  0.41543538  0.13667958    -0.28400
C772        C  0.24414541  0.43187035  0.13384272    -0.03600
C773        C  0.23294149  0.43615048  0.14783073     0.05000
C774        C  0.23346907  0.42176359  0.15908780     0.03100
H775        H  0.24764778  0.44022789  0.12269095     0.08200
H776        H  0.22721067  0.42067086  0.17199602     0.07000
N777        N  0.38216090  0.28606724  0.10522062    -0.27400
N778        N  0.36596471  0.28924060  0.11146266    -0.35200
C779        C  0.35603698  0.29677215  0.09868894     0.01000
C780        C  0.36644134  0.29869219  0.08374021     0.07000
C781        C  0.38294404  0.29176243  0.08825047    -0.06100
H782        H  0.34224699  0.30069797  0.10023352     0.07600
H783        H  0.39452120  0.29064031  0.07974857     0.08800
Cu784      Cu  0.35725975  0.28383745  0.13693318     0.44200
Cu785      Cu  0.40207053  0.27321824  0.11978045     0.42000
Cu786      Cu  0.38804267  0.26283239  0.16508102     0.43900
N787        N  0.35142253  0.27816396  0.16313869    -0.34800
N788        N  0.36316619  0.27060210  0.17378694    -0.29000
C789        C  0.35604226  0.26894234  0.19008428    -0.05100
C790        C  0.33893073  0.27566528  0.18953652     0.07100
C791        C  0.33638504  0.28144928  0.17230124     0.00900
H792        H  0.36278769  0.26324566  0.20144479     0.08500
H793        H  0.32461931  0.28777179  0.16690287     0.07600
N794        N  0.41176171  0.25461908  0.15391561    -0.36200
N795        N  0.41725083  0.25829983  0.13763193    -0.28400
C796        C  0.43331064  0.25062085  0.13510641    -0.03600
C797        C  0.43795651  0.24158318  0.15052875     0.05000
C798        C  0.42398969  0.24456883  0.16209874     0.03100
H799        H  0.44112001  0.25186802  0.12309626     0.08200
H800        H  0.42276278  0.23974312  0.17558781     0.07000
N801        N  0.37693482  0.11779016  0.25607518    -0.27400
N802        N  0.36262932  0.12555969  0.26283712    -0.35200
C803        C  0.35362467  0.11389471  0.27288351     0.01000
C804        C  0.36252793  0.09793775  0.27246353     0.07000
C805        C  0.37720007  0.10074111  0.26158846    -0.06100
H806        H  0.34130685  0.11676951  0.27978845     0.07600
H807        H  0.38731203  0.09114423  0.25802276     0.08800
Cu808      Cu  0.35487456  0.15138102  0.25804324     0.44200
Cu809      Cu  0.39530831  0.13117839  0.23977092     0.42000
Cu810      Cu  0.38162382  0.17654173  0.22869153     0.43900
N811        N  0.34891593  0.17728839  0.25147434    -0.34800
N812        N  0.35904620  0.18679819  0.24075699    -0.29000
C813        C  0.35224181  0.20325407  0.23949991    -0.05100
C814        C  0.33690689  0.20398423  0.24968633     0.07100
C815        C  0.33524484  0.18731737  0.25718193     0.00900
H816        H  0.35798086  0.21387405  0.23170893     0.08500
H817        H  0.32508278  0.18291277  0.26637731     0.07600
N818        N  0.40475216  0.16468781  0.21944622    -0.36200
N819        N  0.41029387  0.14860449  0.22385729    -0.28400
C820        C  0.42688554  0.14628842  0.21728021    -0.03600
C821        C  0.43172987  0.16147126  0.20804101     0.05000
C822        C  0.41743307  0.17283080  0.20983068     0.03100
H823        H  0.43512420  0.13476313  0.21971472     0.08200
H824        H  0.41679179  0.18650143  0.20550404     0.07000
N825        N  0.25316554  0.15459705  0.40029006    -0.27400
N826        N  0.24975422  0.17060813  0.39396932    -0.35200
C827        C  0.24149334  0.18035768  0.40636341     0.01000
C828        C  0.23985261  0.17041812  0.42166437     0.07000
C829        C  0.24713476  0.15395457  0.41724114    -0.06100
H830        H  0.23677271  0.19372377  0.40415409     0.07600
H831        H  0.24810552  0.14245571  0.42578124     0.08800
Cu832      Cu  0.25643072  0.17980175  0.36915571     0.44200
Cu833      Cu  0.26574332  0.13481466  0.38465722     0.42000
Cu834      Cu  0.27347885  0.14979807  0.33838583     0.43900
N835        N  0.26344183  0.18744588  0.34392215    -0.34800
N836        N  0.26939770  0.17605667  0.33202020    -0.29000
C837        C  0.27311974  0.18476776  0.31687687    -0.05100
C838        C  0.26931382  0.20248581  0.31958233     0.07100
C839        C  0.26332303  0.20377850  0.33685605     0.00900
H840        H  0.27873544  0.17878366  0.30506745     0.08500
H841        H  0.25941077  0.21570713  0.34383606     0.07600
N842        N  0.27963732  0.12488382  0.34786268    -0.36200
N843        N  0.27752505  0.11916596  0.36437333    -0.28400
C844        C  0.28401546  0.10243344  0.36529918    -0.03600
C845        C  0.29046621  0.09759783  0.34860293     0.05000
C846        C  0.28728180  0.11216590  0.33800766     0.03100
H847        H  0.28385735  0.09433273  0.37715994     0.08200
H848        H  0.29062014  0.11358111  0.32409008     0.07000
N849        N  0.15481928  0.25549816  0.40064517    -0.27400
N850        N  0.16786583  0.24635561  0.39313828    -0.35200
C851        C  0.17547261  0.23577402  0.40534227     0.01000
C852        C  0.16692541  0.23836967  0.42135661     0.07000
C853        C  0.15401334  0.25109412  0.41800774    -0.06100
H854        H  0.18679509  0.22723157  0.40286520     0.07600
H855        H  0.14473901  0.25670905  0.42747268     0.08800
Cu856      Cu  0.17631575  0.24961571  0.36718715     0.44200
Cu857      Cu  0.13859656  0.27322249  0.38655015     0.42000
Cu858      Cu  0.15236495  0.28052063  0.34050399     0.43900
N859        N  0.18499415  0.25760334  0.34236728    -0.34800
N860        N  0.17610816  0.26896767  0.33236591    -0.29000
C861        C  0.18592039  0.27281944  0.31790160    -0.05100
C862        C  0.20177799  0.26346361  0.31892627     0.07100
C863        C  0.20077302  0.25406714  0.33468043     0.00900
H864        H  0.18236438  0.28267507  0.30807014     0.08500
H865        H  0.21114890  0.24602406  0.34059208     0.07600
N866        N  0.12917036  0.29071608  0.35154894    -0.36200
N867        N  0.12401872  0.28827092  0.36818588    -0.28400
C868        C  0.10784545  0.29581647  0.37037422    -0.03600
C869        C  0.10264742  0.30342205  0.35436986     0.05000
C870        C  0.11651063  0.29980814  0.34279625     0.03100
H871        H  0.10005698  0.29497301  0.38244077     0.08200
H872        H  0.11710690  0.30308129  0.32881070     0.07000
N873        N  0.12111768  0.38317362  0.26794778    -0.27400
N874        N  0.12668576  0.36687149  0.27141738    -0.35200
C875        C  0.11405599  0.35819382  0.28059356     0.01000
C876        C  0.09984451  0.36948523  0.28318722     0.07000
C877        C  0.10471309  0.38527452  0.27506162    -0.06100
H878        H  0.11511820  0.34450638  0.28501106     0.07600
H879        H  0.09681958  0.39712864  0.27403187     0.08800
Cu880      Cu  0.15119790  0.35663337  0.26412250     0.44200
Cu881      Cu  0.13598523  0.40148223  0.25301376     0.42000
Cu882      Cu  0.18041911  0.38603660  0.24116596     0.43900
N883        N  0.17712275  0.34992332  0.25767626    -0.34800
N884        N  0.18803696  0.36096011  0.24945368    -0.29000
C885        C  0.20418349  0.35334993  0.24804736    -0.05100
C886        C  0.20327354  0.33671798  0.25565344     0.07100
C887        C  0.18599170  0.33494057  0.26170186     0.00900
H888        H  0.21579319  0.35958574  0.24224010     0.08500
H889        H  0.18042712  0.32383678  0.26892081     0.07600
N890        N  0.17010606  0.41034558  0.23343070    -0.36200
N891        N  0.15400177  0.41619703  0.23754231    -0.28400
C892        C  0.15194717  0.43257166  0.23055074    -0.03600
C893        C  0.16748285  0.43715829  0.22154578     0.05000
C894        C  0.17865004  0.42272057  0.22382624     0.03100
H895        H  0.14025556  0.44074476  0.23244688     0.08200
H896        H  0.19215928  0.42136289  0.21896831     0.07000
C897        C  0.29203764  0.26532804  0.26221611     0.02200
C898        C  0.29175984  0.27966215  0.25000220     0.02200
C899        C  0.27798915  0.29256236  0.25091180     0.02200
C900        C  0.26444039  0.29108384  0.26400897     0.02200
C901        C  0.26471652  0.27681033  0.27627318     0.02200
C902        C  0.27860136  0.26404290  0.27542826     0.02200
C903        C  0.03558981  0.33455368  0.33209176     0.02200
C904        C  0.03522729  0.34805986  0.31903766     0.02200
C905        C  0.01876522  0.35433597  0.31284832    -0.18400
C906        C  0.00266740  0.34703571  0.31887863     0.02200
C907        C  0.00295503  0.33348787  0.33190065     0.02200
C908        C  0.01945085  0.32763463  0.33856853    -0.18400
H909        H  0.01975708  0.31696350  0.34821876     0.04200
H910        H  0.01850343  0.36432150  0.30248140     0.04200
C911        C  0.70360055  0.34377793  0.98778327     0.02200
C912        C  0.68842924  0.33268437  0.98819305     0.02200
C913        C  0.68069961  0.32840437  0.00458015    -0.18400
C914        C  0.68806548  0.33420762  0.02076755     0.02200
C915        C  0.70365958  0.34504180  0.02047872     0.02200
C916        C  0.71097287  0.34976344  0.00386860    -0.18400
H917        H  0.72310121  0.35755879  0.00339965     0.04200
H918        H  0.66931063  0.31954170  0.00477994     0.04200
N919        N  0.91771748  0.38390497  0.26707974    -0.27400
N920        N  0.91308158  0.36702816  0.26803325    -0.35200
C921        C  0.92571303  0.35793812  0.27675574     0.01000
C922        C  0.93900504  0.36956784  0.28179903     0.07000
C923        C  0.93358008  0.38597078  0.27530832    -0.06100
H924        H  0.92510579  0.34386569  0.27950406     0.07600
H925        H  0.94068422  0.39841405  0.27628435     0.08800
Cu926      Cu  0.88937190  0.35685677  0.25870981     0.44200
Cu927      Cu  0.90143525  0.40286754  0.25491982     0.42000
Cu928      Cu  0.85523088  0.38741945  0.24712406     0.43900
N929        N  0.86389210  0.34897490  0.25223895    -0.34800
N930        N  0.85091304  0.36019340  0.24848598    -0.29000
C931        C  0.83587821  0.35091152  0.24540388    -0.05100
C932        C  0.83972476  0.33298277  0.24711770     0.07100
C933        C  0.85757403  0.33233088  0.25167609     0.00900
H934        H  0.82314039  0.35674653  0.24202048     0.08500
H935        H  0.86534145  0.32066801  0.25485573     0.07600
N936        N  0.86449636  0.41284208  0.24159410    -0.36200
N937        N  0.88123356  0.41817767  0.24340843    -0.28400
C938        C  0.88281856  0.43454136  0.23634984    -0.03600
C939        C  0.86630064  0.43972435  0.22995211     0.05000
C940        C  0.85501973  0.42573777  0.23363827     0.03100
H941        H  0.89512481  0.44199706  0.23568688     0.08200
H942        H  0.84110568  0.42465612  0.22999468     0.07000
N943        N  0.91744830  0.28056045  0.36590961    -0.27400
N944        N  0.91272237  0.28206025  0.34902549    -0.35200
C945        C  0.92556842  0.29062459  0.34001497     0.01000
C946        C  0.93911605  0.29488306  0.35167797     0.07000
C947        C  0.93350140  0.28843675  0.36804740    -0.06100
H948        H  0.92495832  0.29377364  0.32599591     0.07600
H949        H  0.94066357  0.28922321  0.38050668     0.08800
Cu950      Cu  0.88858222  0.27372525  0.33869640     0.44200
Cu951      Cu  0.90147329  0.26746069  0.38486732     0.42000
Cu952      Cu  0.85607667  0.25769153  0.36909012     0.43900
N953        N  0.86265552  0.26811700  0.33126214    -0.34800
N954        N  0.85032377  0.26276405  0.34257420    -0.29000
C955        C  0.83481998  0.26065102  0.33377922    -0.05100
C956        C  0.83760509  0.26494552  0.31607950     0.07100
C957        C  0.85543567  0.26946812  0.31497880     0.00900
H958        H  0.82260946  0.25583669  0.33971441     0.08500
H959        H  0.86263694  0.27348293  0.30318955     0.07600
N960        N  0.86567595  0.25089711  0.39408472    -0.36200
N961        N  0.88208891  0.25382155  0.39989010    -0.28400
C962        C  0.88360226  0.24685353  0.41638729    -0.03600
C963        C  0.86737078  0.23925491  0.42110012     0.05000
C964        C  0.85639039  0.24225064  0.40665722     0.03100
H965        H  0.89551172  0.24756494  0.42447445     0.08200
H966        H  0.84260514  0.23823690  0.40530335     0.07000
N967        N  0.62102803  0.24873256  0.13688650    -0.27400
N968        N  0.62831940  0.24338079  0.15198709    -0.35200
C969        C  0.61626482  0.23393765  0.16123159     0.01000
C970        C  0.60056195  0.23333986  0.15160002     0.07000
C971        C  0.60413218  0.24265856  0.13612722    -0.06100
H972        H  0.61862225  0.22833760  0.17426188     0.07600
H973        H  0.59482956  0.24558845  0.12553277     0.08800
Cu974      Cu  0.65371472  0.25036078  0.16051495     0.44200
Cu975      Cu  0.63366738  0.26595362  0.11907213     0.42000
Cu976      Cu  0.67328284  0.28686084  0.13743327     0.43900
N977        N  0.67837018  0.26094186  0.16724685    -0.34800
N978        N  0.68526325  0.27485867  0.15907866    -0.29000
C979        C  0.70109016  0.27882021  0.16649988    -0.05100
C980        C  0.70430161  0.26674595  0.17992600     0.07100
C981        C  0.68969047  0.25557307  0.18004622     0.00900
H982        H  0.70969263  0.28954836  0.16230638     0.08500
H983        H  0.68737752  0.24449822  0.18889186     0.07600
N984        N  0.66236349  0.29347626  0.11308432    -0.36200
N985        N  0.64856013  0.28533449  0.10577374    -0.28400
C986        C  0.64684279  0.29105513  0.08886988    -0.03600
C987        C  0.66014200  0.30342624  0.08555235     0.05000
C988        C  0.66961704  0.30464795  0.10121275     0.03100
H989        H  0.63715063  0.28603910  0.07947454     0.08200
H990        H  0.68174881  0.31211112  0.10338915     0.07000
N991        N  0.79073933  0.41236415  0.13660378    -0.27400
N992        N  0.79784077  0.40542412  0.15113200    -0.35200
C993        C  0.80540100  0.41829407  0.16090011     0.01000
C994        C  0.80314335  0.43420060  0.15216287     0.07000
C995        C  0.79395153  0.42999556  0.13669444    -0.06100
H996        H  0.81228265  0.41616831  0.17336251     0.07600
H997        H  0.78976750  0.43910273  0.12639480     0.08800
Cu998      Cu  0.79765663  0.37883777  0.15737605     0.44200
Cu999      Cu  0.77674550  0.39707833  0.11771314     0.42000
Cu1000     Cu  0.78303237  0.34932736  0.12375300     0.43900
N1001       N  0.79488714  0.35201920  0.16154659    -0.34800
N1002       N  0.78974303  0.34089620  0.14900139    -0.29000
C1003       C  0.78680671  0.32488780  0.15631121    -0.05100
C1004       C  0.79011792  0.32616833  0.17433231     0.07100
C1005       C  0.79539790  0.34347380  0.17717744     0.00900
H1006       H  0.78129402  0.31360703  0.14932155     0.08500
H1007       H  0.79832173  0.34967714  0.18981468     0.07600
N1008       N  0.76870196  0.36046313  0.10312983    -0.36200
N1009       N  0.76491430  0.37749956  0.10152016    -0.28400
C1010       C  0.75274850  0.37932987  0.08839264    -0.03600
C1011       C  0.74864328  0.36261651  0.08146736     0.05000
C1012       C  0.75953718  0.35118255  0.09097221     0.03100
H1013       H  0.74707419  0.39189967  0.08440978     0.08200
H1014       H  0.76097162  0.33705471  0.08935235     0.07000
N1015       N  0.62006387  0.15442594  0.23420868    -0.27400
N1016       N  0.62567253  0.17048372  0.22978486    -0.35200
C1017       C  0.61256755  0.17907994  0.22123779     0.01000
C1018       C  0.59794611  0.16804131  0.22025910     0.07000
C1019       C  0.60316939  0.15241883  0.22840637    -0.06100
H1020       H  0.61357213  0.19250327  0.21625277     0.07600
H1021       H  0.59512098  0.14068748  0.23044517     0.08800
Cu1022     Cu  0.65038892  0.18114976  0.23565108     0.44200
Cu1023     Cu  0.63520059  0.13635260  0.24885884     0.42000
Cu1024     Cu  0.67820634  0.15395446  0.26183534     0.43900
N1025       N  0.67575931  0.18887006  0.24311411    -0.34800
N1026       N  0.68605207  0.17849409  0.25283090    -0.29000
C1027       C  0.70205180  0.18615950  0.25486234    -0.05100
C1028       C  0.70182191  0.20216472  0.24598812     0.07100
C1029       C  0.68491302  0.20361124  0.23877443     0.00900
H1030       H  0.71314908  0.18034481  0.26197592     0.08500
H1031       H  0.67987562  0.21422671  0.23050248     0.07600
N1032       N  0.66947270  0.12893550  0.26839200    -0.36200
N1033       N  0.65381450  0.12224395  0.26388265    -0.28400
C1034       C  0.65283756  0.10546776  0.27001347    -0.03600
C1035       C  0.66876385  0.10150094  0.27848160     0.05000
C1036       C  0.67889200  0.11670496  0.27729649     0.03100
H1037       H  0.64161670  0.09667027  0.26802834     0.08200
H1038       H  0.69224113  0.11870405  0.28237945     0.07000
N1039       N  0.75928861  0.11805953  0.36131492    -0.27400
N1040       N  0.75943127  0.12245441  0.34429660    -0.35200
C1041       C  0.75054661  0.11021113  0.33488176     0.01000
C1042       C  0.74420658  0.09752211  0.34643599     0.07000
C1043       C  0.75004222  0.10280909  0.36313319    -0.06100
H1044       H  0.74853981  0.11071042  0.32064730     0.07600
H1045       H  0.74792515  0.09598273  0.37559879     0.08800
Cu1046     Cu  0.76981638  0.14557193  0.33414309     0.44200
Cu1047     Cu  0.77187333  0.13338369  0.38089041     0.42000
Cu1048     Cu  0.78369861  0.17795771  0.36508338     0.43900
N1049       N  0.77503923  0.17135024  0.32691493    -0.34800
N1050       N  0.77961476  0.18368700  0.33848649    -0.29000
C1051       C  0.78074584  0.19936951  0.33004258    -0.05100
C1052       C  0.77646841  0.19669891  0.31231988     0.07100
C1053       C  0.77313236  0.17874282  0.31080142     0.00900
H1054       H  0.78447272  0.21172540  0.33633083     0.08500
H1055       H  0.76908906  0.17165686  0.29896052     0.07600
N1056       N  0.78899092  0.16854596  0.39039415    -0.36200
N1057       N  0.78527656  0.15239714  0.39623631    -0.28400
C1058       C  0.79119956  0.15094396  0.41312697    -0.03600
C1059       C  0.79874433  0.16699788  0.41805795     0.05000
C1060       C  0.79712988  0.17776051  0.40333044     0.03100
H1061       H  0.78975887  0.13924642  0.42132598     0.08200
H1062       H  0.80154542  0.19136600  0.40210125     0.07000
C1063       C  0.77788384  0.27409498  0.22876331     0.02200
C1064       C  0.79017634  0.27427551  0.24297198     0.02200
C1065       C  0.78948084  0.26093837  0.25608571     0.02200
C1066       C  0.77587878  0.24795801  0.25541645     0.02200
C1067       C  0.76244682  0.24897169  0.24223974     0.02200
C1068       C  0.76364722  0.26184609  0.22861948     0.02200
C1069       C  0.69093496  0.03623639  0.31165458     0.02200
C1070       C  0.70559537  0.03544821  0.32339271     0.02200
C1071       C  0.71208780  0.01894435  0.32886854    -0.18400
C1072       C  0.70473476  0.00318877  0.32232504     0.02200
C1073       C  0.69000173  0.00389591  0.31062334     0.02200
C1074       C  0.68313337  0.02044640  0.30556078    -0.18400
H1075       H  0.67220031  0.02104940  0.29614339     0.04200
H1076       H  0.72351272  0.01836591  0.33769692     0.04200
N1077       N  0.75694845  0.91984931  0.36039115    -0.27400
N1078       N  0.75159829  0.91286043  0.34515833    -0.35200
C1079       C  0.74268123  0.92501906  0.33568583     0.01000
C1080       C  0.74199817  0.94044482  0.34539102     0.07000
C1081       C  0.75121826  0.93682175  0.36100847    -0.06100
H1082       H  0.73656288  0.92257470  0.32289038     0.07600
H1083       H  0.75346386  0.94579272  0.37200715     0.08800
Cu1084     Cu  0.75470060  0.88693648  0.33764384     0.44200
Cu1085     Cu  0.77149494  0.90542420  0.37951928     0.42000
Cu1086     Cu  0.77662602  0.85854607  0.36750360     0.43900
N1087       N  0.75831185  0.86054661  0.33232301    -0.34800
N1088       N  0.76652169  0.84980734  0.34347458    -0.29000
C1089       C  0.76740652  0.83356375  0.33619895    -0.05100
C1090       C  0.75952431  0.83425739  0.31957061     0.07100
C1091       C  0.75368687  0.85153432  0.31764662     0.00900
H1092       H  0.77369208  0.82220103  0.34236064     0.08500
H1093       H  0.74660328  0.85718746  0.30647892     0.07600
N1094       N  0.78665673  0.86975105  0.39054302    -0.36200
N1095       N  0.78515075  0.88662275  0.39517824    -0.28400
C1096       C  0.79310494  0.88881774  0.41116570    -0.03600
C1097       C  0.79960637  0.87250074  0.41685596     0.05000
C1098       C  0.79542581  0.86087023  0.40330061     0.03100
H1099       H  0.79364808  0.90122631  0.41836945     0.08200
H1100       H  0.79842308  0.84684384  0.40277404     0.07000
N1101       N  0.65044290  0.91809277  0.26361800    -0.27400
N1102       N  0.66659883  0.91217185  0.26761184    -0.35200
C1103       C  0.67547308  0.92471892  0.27666900     0.01000
C1104       C  0.66449607  0.93924366  0.27860564     0.07000
C1105       C  0.64869200  0.93465031  0.27023864    -0.06100
H1106       H  0.68916094  0.92354507  0.28107180     0.07600
H1107       H  0.63709162  0.94299021  0.26843676     0.08800
Cu1108     Cu  0.67724505  0.88789228  0.26030406     0.44200
Cu1109     Cu  0.63197026  0.90396849  0.24808659     0.42000
Cu1110     Cu  0.65005809  0.86226580  0.23239284     0.43900
N1111       N  0.68476851  0.86291061  0.25169892    -0.34800
N1112       N  0.67440025  0.85340087  0.24120617    -0.29000
C1113       C  0.68178966  0.83739891  0.23860433    -0.05100
C1114       C  0.69767831  0.83690403  0.24779238     0.07100
C1115       C  0.69919975  0.85322247  0.25604888     0.00900
H1116       H  0.67576159  0.82674129  0.23107585     0.08500
H1117       H  0.70962912  0.85746769  0.26503506     0.07600
N1118       N  0.62494899  0.87120661  0.22616279    -0.36200
N1119       N  0.61785038  0.88626201  0.23173975    -0.28400
C1120       C  0.60094946  0.88720031  0.22556404    -0.03600
C1121       C  0.59736057  0.87183874  0.21597418     0.05000
C1122       C  0.61297108  0.86221263  0.21649831     0.03100
H1123       H  0.59181412  0.89798104  0.22823512     0.08200
H1124       H  0.61545569  0.84944911  0.21041340     0.07000
N1125       N  0.91469355  0.75958232  0.35979417    -0.27400
N1126       N  0.90783631  0.75574944  0.34403406    -0.35200
C1127       C  0.91998596  0.74694568  0.33431992     0.01000
C1128       C  0.93538689  0.74510624  0.34423532     0.07000
C1129       C  0.93149436  0.75308890  0.36044252    -0.06100
H1130       H  0.91767495  0.74204788  0.32099923     0.07600
H1131       H  0.94033410  0.75432530  0.37174259     0.08800
Cu1132     Cu  0.88211882  0.76179997  0.33586610     0.44200
Cu1133     Cu  0.90059612  0.77384937  0.37940178     0.42000
Cu1134     Cu  0.85359751  0.78079658  0.36825844     0.43900
N1135       N  0.85528628  0.76647976  0.33114710    -0.34800
N1136       N  0.84455722  0.77290856  0.34348369    -0.29000
C1137       C  0.82785462  0.77360807  0.33701001    -0.05100
C1138       C  0.82814191  0.76738822  0.31972379     0.07100
C1139       C  0.84574951  0.76309273  0.31636923     0.00900
H1140       H  0.81638761  0.77840878  0.34428729     0.08500
H1141       H  0.85114898  0.75757445  0.30423710     0.07600
N1142       N  0.86542974  0.78976407  0.39145825    -0.36200
N1143       N  0.88247270  0.78783122  0.39562700    -0.28400
C1144       C  0.88536066  0.79575239  0.41149965    -0.03600
C1145       C  0.86935173  0.80289098  0.41749083     0.05000
C1146       C  0.85708389  0.79868556  0.40447529     0.03100
H1147       H  0.89803311  0.79591932  0.41837140     0.08200
H1148       H  0.84302475  0.80191067  0.40446033     0.07000
N1149       N  0.91214290  0.65672638  0.26216486    -0.27400
N1150       N  0.90609208  0.67279631  0.26583089    -0.35200
C1151       C  0.91919237  0.68243227  0.27321499     0.01000
C1152       C  0.93433780  0.67206681  0.27424706     0.07000
C1153       C  0.92935721  0.65574187  0.26731961    -0.06100
H1154       H  0.91764989  0.69590913  0.27791191     0.07600
H1155       H  0.93763103  0.64405039  0.26610764     0.08800
Cu1156     Cu  0.88011908  0.68111670  0.26190692     0.44200
Cu1157     Cu  0.89623796  0.63700418  0.25065114     0.42000
Cu1158     Cu  0.84871138  0.64690921  0.25251894     0.43900
N1159       N  0.85309104  0.68580425  0.25932096    -0.34800
N1160       N  0.84141118  0.67297423  0.25664000    -0.29000
C1161       C  0.82497479  0.67999085  0.25572228    -0.05100
C1162       C  0.82643701  0.69815035  0.25767597     0.07100
C1163       C  0.84442980  0.70139719  0.26007356     0.00900
H1164       H  0.81290808  0.67248316  0.25337257     0.08500
H1165       H  0.85074302  0.71409520  0.26236424     0.07600
N1166       N  0.85908743  0.62357044  0.24257768    -0.36200
N1167       N  0.87631220  0.62016381  0.24089611    -0.28400
C1168       C  0.87821461  0.60466392  0.23214686    -0.03600
C1169       C  0.86138755  0.59797612  0.22848219     0.05000
C1170       C  0.84963538  0.61034668  0.23521673     0.03100
H1171       H  0.89087474  0.59869489  0.22872579     0.08200
H1172       H  0.83523950  0.61007385  0.23428370     0.07000
N1173       N  0.65466573  0.75956405  0.09888546    -0.27400
N1174       N  0.67084601  0.75661351  0.10521761    -0.35200
C1175       C  0.68037020  0.74745301  0.09327329     0.01000
C1176       C  0.66994042  0.74462447  0.07842829     0.07000
C1177       C  0.65356970  0.75225463  0.08253128    -0.06100
H1178       H  0.69388074  0.74292319  0.09544615     0.07600
H1179       H  0.64184607  0.75266483  0.07415681     0.08800
Cu1180     Cu  0.68002486  0.76457977  0.12974190     0.44200
Cu1181     Cu  0.63540453  0.77393605  0.11305543     0.42000
Cu1182     Cu  0.65074551  0.78933223  0.15684587     0.43900
N1183       N  0.68625288  0.77135700  0.15550109    -0.34800
N1184       N  0.67508874  0.78009995  0.16584516    -0.29000
C1185       C  0.68202169  0.78109376  0.18228658    -0.05100
C1186       C  0.69846603  0.77279744  0.18212709     0.07100
C1187       C  0.70071632  0.76670567  0.16495834     0.00900
H1188       H  0.67546982  0.78714015  0.19357465     0.08500
H1189       H  0.71164812  0.75880515  0.15991848     0.07600
N1190       N  0.62674331  0.79652361  0.14535581    -0.36200
N1191       N  0.62071277  0.79058152  0.12991804    -0.28400
C1192       C  0.60408512  0.79694169  0.12741771    -0.03600
C1193       C  0.59972348  0.80759776  0.14177683     0.05000
C1194       C  0.61431192  0.80690962  0.15290169     0.03100
H1195       H  0.59563461  0.79369767  0.11622290     0.08200
H1196       H  0.61548152  0.81284462  0.16594415     0.07000
N1197       N  0.75598806  0.65529319  0.10261003    -0.27400
N1198       N  0.75356581  0.67175143  0.10827331    -0.35200
C1199       C  0.74591159  0.68141175  0.09535414     0.01000
C1200       C  0.74327255  0.67068106  0.08073487     0.07000
C1201       C  0.74963243  0.65412880  0.08583792    -0.06100
H1202       H  0.74202229  0.69516404  0.09672967     0.07600
H1203       H  0.74961516  0.64214455  0.07793208     0.08800
Cu1204     Cu  0.75917978  0.68088214  0.13357284     0.44200
Cu1205     Cu  0.76792176  0.63524948  0.11821218     0.42000
Cu1206     Cu  0.77779515  0.64991415  0.16337842     0.43900
N1207       N  0.76361858  0.68676398  0.16002195    -0.34800
N1208       N  0.77016767  0.67500526  0.17125903    -0.29000
C1209       C  0.77073580  0.68216238  0.18760894    -0.05100
C1210       C  0.76447251  0.69936063  0.18649310     0.07100
C1211       C  0.75997815  0.70183960  0.16884303     0.00900
H1212       H  0.77538993  0.67537794  0.19940414     0.08500
H1213       H  0.75412796  0.71356062  0.16293754     0.07600
N1214       N  0.78437346  0.62518958  0.15358568    -0.36200
N1215       N  0.78075724  0.61929889  0.13742104    -0.28400
C1216       C  0.78664067  0.60236912  0.13620908    -0.03600
C1217       C  0.79402980  0.59743956  0.15247885     0.05000
C1218       C  0.79259920  0.61244247  0.16292208     0.03100
H1219       H  0.78543297  0.59417067  0.12446991     0.08200
H1220       H  0.79735671  0.61413267  0.17638516     0.07000
C1221       C  0.76818103  0.74809476  0.25888538     0.02200
C1222       C  0.76819689  0.76187028  0.27161875     0.02200
C1223       C  0.75483444  0.77512044  0.27105072     0.02200
C1224       C  0.74217538  0.77520275  0.25705164     0.02200
C1225       C  0.74267256  0.76179362  0.24389884     0.02200
C1226       C  0.75552712  0.74812268  0.24494038     0.02200
C1227       C  0.99954205  0.69470751  0.30842437     0.02200
C1228       C  0.99952044  0.70871955  0.32093791     0.02200
C1229       C  0.01581963  0.71501209  0.32752182    -0.18400
C1230       C  0.03212993  0.70801270  0.32161406     0.02200
C1231       C  0.03223578  0.69381772  0.30921245     0.02200
C1232       C  0.01582152  0.68715381  0.30309503    -0.18400
H1233       H  0.01569109  0.67621467  0.29374969     0.04200
H1234       H  0.01583012  0.72589578  0.33694427     0.04200
N1235       N  0.24778190  0.88470680  0.39649411    -0.27400
N1236       N  0.24619390  0.86769937  0.39241271    -0.35200
C1237       C  0.23789039  0.85917446  0.40568911     0.01000
C1238       C  0.23391073  0.87131605  0.41876784     0.07000
C1239       C  0.24027534  0.88741919  0.41256961    -0.06100
H1240       H  0.23497191  0.84512112  0.40580753     0.07600
H1241       H  0.23982134  0.90004842  0.41937988     0.08800
Cu1242     Cu  0.25476420  0.85615377  0.36909933     0.44200
Cu1243     Cu  0.26083653  0.90309061  0.38012896     0.42000
Cu1244     Cu  0.27658893  0.88416684  0.33835755     0.43900
N1245       N  0.26305007  0.84751848  0.34447034    -0.34800
N1246       N  0.27105645  0.85801366  0.33294604    -0.29000
C1247       C  0.27516939  0.84868269  0.31830911    -0.05100
C1248       C  0.26928720  0.83146783  0.32071652     0.07100
C1249       C  0.26180612  0.83117424  0.33752074     0.00900
H1250       H  0.28248339  0.85391977  0.30709362     0.08500
H1251       H  0.25605924  0.81987067  0.34427598     0.07600
N1252       N  0.28157761  0.90980177  0.34627514    -0.36200
N1253       N  0.27574900  0.91709429  0.36118248    -0.28400
C1254       C  0.28142961  0.93406912  0.36173342    -0.03600
C1255       C  0.29142891  0.93731022  0.34658403     0.05000
C1256       C  0.29116271  0.92171070  0.33710311     0.03100
H1257       H  0.27861217  0.94329861  0.37238048     0.08200
H1258       H  0.29735548  0.91921818  0.32435914     0.07000
N1259       N  0.41519076  0.88378796  0.23362404    -0.27400
N1260       N  0.41130594  0.86666774  0.23331317    -0.35200
C1261       C  0.42471277  0.85767256  0.22570511     0.01000
C1262       C  0.43786356  0.86951839  0.22093485     0.07000
C1263       C  0.43133399  0.88604643  0.22594449    -0.06100
H1264       H  0.42465884  0.84350869  0.22338772     0.07600
H1265       H  0.43785478  0.89871951  0.22416859     0.08800
Cu1266     Cu  0.38774126  0.85549645  0.24189825     0.44200
Cu1267     Cu  0.39784134  0.90288598  0.24461766     0.42000
Cu1268     Cu  0.35393458  0.88446012  0.25627717     0.43900
N1269       N  0.36264111  0.84661931  0.24863734    -0.34800
N1270       N  0.34975671  0.85752662  0.25346324    -0.29000
C1271       C  0.33485378  0.84810764  0.25655357    -0.05100
C1272       C  0.33867894  0.83043241  0.25354502     0.07100
C1273       C  0.35641074  0.82991051  0.24865631     0.00900
H1274       H  0.32230295  0.85365540  0.26094992     0.08500
H1275       H  0.36416254  0.81829347  0.24526187     0.07600
N1276       N  0.36134545  0.91052999  0.26046464    -0.36200
N1277       N  0.37709021  0.91748373  0.25665019    -0.28400
C1278       C  0.37714874  0.93453165  0.26221528    -0.03600
C1279       C  0.36059123  0.93845049  0.26960847     0.05000
C1280       C  0.35111185  0.92279304  0.26840700     0.03100
H1281       H  0.38844621  0.94338717  0.26113289     0.08200
H1282       H  0.33791567  0.92020781  0.27358636     0.07000
N1283       N  0.27089715  0.65967690  0.10096584    -0.27400
N1284       N  0.27364984  0.67577495  0.10741432    -0.35200
C1285       C  0.28144202  0.68586170  0.09492199     0.01000
C1286       C  0.28373655  0.67575380  0.07978491     0.07000
C1287       C  0.27706893  0.65914270  0.08413197    -0.06100
H1288       H  0.28581183  0.69938045  0.09698724     0.07600
H1289       H  0.27695335  0.64747807  0.07575790     0.08800
Cu1290     Cu  0.26887924  0.68330724  0.13342585     0.44200
Cu1291     Cu  0.25985540  0.63898157  0.11593970     0.42000
Cu1292     Cu  0.26135854  0.64766033  0.16352668     0.43900
N1293       N  0.26747394  0.68691210  0.16063974    -0.34800
N1294       N  0.26553392  0.67355380  0.17182975    -0.29000
C1295       C  0.26625291  0.67979127  0.18855577    -0.05100
C1296       C  0.26850632  0.69798039  0.18781529     0.07100
C1297       C  0.26933058  0.70205886  0.16991582     0.00900
H1298       H  0.26518999  0.67170217  0.20038321     0.08500
H1299       H  0.27165891  0.71496727  0.16408224     0.07600
N1300       N  0.25280015  0.62393496  0.15249799    -0.36200
N1301       N  0.25116929  0.62091856  0.13524388    -0.28400
C1302       C  0.24338249  0.60493275  0.13293573    -0.03600
C1303       C  0.24034216  0.59751500  0.14953163     0.05000
C1304       C  0.24644034  0.60994762  0.16155137     0.03100
H1305       H  0.24014395  0.59916269  0.12016958     0.08200
H1306       H  0.24566250  0.60917713  0.17589066     0.07000
N1307       N  0.15372050  0.61916078  0.23816064    -0.27400
N1308       N  0.16946941  0.62545671  0.23341208    -0.35200
C1309       C  0.17813538  0.61330650  0.22367183     0.01000
C1310       C  0.16737675  0.59857972  0.22191887     0.07000
C1311       C  0.15197507  0.60267309  0.23135666    -0.06100
H1312       H  0.19141417  0.61504200  0.21832917     0.07600
H1313       H  0.14057615  0.59415043  0.23350068     0.08800
Cu1314     Cu  0.17925817  0.64994296  0.24048471     0.44200
Cu1315     Cu  0.13590431  0.63365938  0.25410920     0.42000
Cu1316     Cu  0.15297249  0.67674777  0.26935434     0.43900
N1317       N  0.18754694  0.67428492  0.24963350    -0.34800
N1318       N  0.17790249  0.68435853  0.26028860    -0.29000
C1319       C  0.18725956  0.69904627  0.26431301    -0.05100
C1320       C  0.20354584  0.69806009  0.25571716     0.07100
C1321       C  0.20331471  0.68213578  0.24666487     0.00900
H1322       H  0.18283293  0.70928151  0.27337041     0.08500
H1323       H  0.21397746  0.67648435  0.23880775     0.07600
N1324       N  0.12786328  0.66699710  0.27546537    -0.36200
N1325       N  0.12132490  0.65173060  0.26968260    -0.28400
C1326       C  0.10411967  0.65055731  0.27482595    -0.03600
C1327       C  0.09983198  0.66562787  0.28449322     0.05000
C1328       C  0.11516303  0.67574309  0.28454145     0.03100
H1329       H  0.09524560  0.63978167  0.27137635     0.08200
H1330       H  0.11672159  0.68891204  0.29004210     0.07000
N1331       N  0.11761495  0.75570808  0.36221782    -0.27400
N1332       N  0.12510098  0.74927371  0.34764295    -0.35200
C1333       C  0.11308119  0.73956726  0.33870178     0.01000
C1334       C  0.09723065  0.73967158  0.34801986     0.07000
C1335       C  0.10053358  0.75012748  0.36284859    -0.06100
H1336       H  0.11563254  0.73311619  0.32610999     0.07600
H1337       H  0.09107527  0.75394197  0.37299808     0.08800
Cu1338     Cu  0.15092443  0.75406385  0.33921875     0.44200
Cu1339     Cu  0.13076683  0.77234064  0.38028966     0.42000
Cu1340     Cu  0.17605070  0.78254901  0.36658592     0.43900
N1341       N  0.17686097  0.76115595  0.33312478    -0.34800
N1342       N  0.18617906  0.77189989  0.34341261    -0.29000
C1343       C  0.20251562  0.77410945  0.33642852    -0.05100
C1344       C  0.20344001  0.76431480  0.32096547     0.07100
C1345       C  0.18700730  0.75619596  0.31923336     0.00900
H1346       H  0.21296880  0.78211701  0.34224731     0.08500
H1347       H  0.18279579  0.74728857  0.30876511     0.07600
N1348       N  0.16474990  0.79142996  0.38997289    -0.36200
N1349       N  0.14834190  0.78789710  0.39532510    -0.28400
C1350       C  0.14601984  0.79501070  0.41164000    -0.03600
C1351       C  0.16174365  0.80343172  0.41665958     0.05000
C1352       C  0.17323868  0.80075664  0.40257054     0.03100
H1353       H  0.13410033  0.79341782  0.41956250     0.08200
H1354       H  0.18702023  0.80491623  0.40171090     0.07000
N1355       N  0.37740024  0.75657524  0.10156067    -0.27400
N1356       N  0.36164379  0.75265172  0.10844926    -0.35200
C1357       C  0.35152036  0.74461326  0.09614104     0.01000
C1358       C  0.36108606  0.74344338  0.08052544     0.07000
C1359       C  0.37758684  0.75092845  0.08449173    -0.06100
H1360       H  0.33810157  0.73989522  0.09847442     0.07600
H1361       H  0.38873473  0.75248503  0.07550627     0.08800
Cu1362     Cu  0.35338797  0.75837916  0.13398020     0.44200
Cu1363     Cu  0.39743281  0.77018648  0.11592388     0.42000
Cu1364     Cu  0.38210415  0.78439422  0.15993400     0.43900
N1365       N  0.34719902  0.76557003  0.15969677    -0.34800
N1366       N  0.35805210  0.77531712  0.16943732    -0.29000
C1367       C  0.35122972  0.77702839  0.18584360    -0.05100
C1368       C  0.33514314  0.76809562  0.18634284     0.07100
C1369       C  0.33303354  0.76088072  0.16956536     0.00900
H1370       H  0.35767762  0.78392269  0.19669895     0.08500
H1371       H  0.32240993  0.75226594  0.16508505     0.07600
N1372       N  0.40694895  0.79002211  0.14976673    -0.36200
N1373       N  0.41311403  0.78480565  0.13414238    -0.28400
C1374       C  0.43019524  0.79040121  0.13270221    -0.03600
C1375       C  0.43490635  0.79926141  0.14827041     0.05000
C1376       C  0.41967007  0.79894450  0.15853323     0.03100
H1377       H  0.43864940  0.78801343  0.12130331     0.08200
H1378       H  0.41782122  0.80488474  0.17148499     0.07000
C1379       C  0.29176041  0.75689534  0.24882099     0.02200
C1380       C  0.29212089  0.77001480  0.26233813     0.02200
C1381       C  0.27886091  0.77005337  0.27577457     0.02200
C1382       C  0.26536813  0.75687209  0.27585319     0.02200
C1383       C  0.26512207  0.74366856  0.26241533     0.02200
C1384       C  0.27829186  0.74368848  0.24887636     0.02200
C1385       C  0.33592451  0.70838002  0.98342239     0.02200
C1386       C  0.32156029  0.69613834  0.98363136     0.02200
C1387       C  0.31469154  0.69057581  0.00007898    -0.18400
C1388       C  0.32112404  0.69749739  0.01616182     0.02200
C1389       C  0.33539704  0.70977647  0.01596475     0.02200
C1390       C  0.34277022  0.71485530  0.99956776    -0.18400
H1391       H  0.35351805  0.72446891  0.99933675     0.04200
H1392       H  0.30389329  0.68101953  0.00037312     0.04200
C1393       C  0.36559764  0.72332016  0.05448809    -0.09300
C1394       C  0.35477021  0.73554736  0.06354421     0.06900
C1395       C  0.33770544  0.73945564  0.05656536    -0.03000
C1396       C  0.33169484  0.73091543  0.04116668    -0.07500
C1397       C  0.34222924  0.71823441  0.03250237     0.06100
C1398       C  0.35944557  0.71465572  0.03913393    -0.02500
Br1399     Br  0.37484241  0.69776777  0.02785254    -0.02200
H1400       H  0.37872175  0.72017137  0.05960844     0.10000
H1401       H  0.31881111  0.73444810  0.03573633     0.08000
Br1402     Br  0.32239330  0.75721017  0.06665256    -0.02600
C1403       C  0.29523229  0.76485883  0.21694485    -0.09300
C1404       C  0.30325387  0.75907640  0.23279100     0.06900
C1405       C  0.32187939  0.75654460  0.23320659    -0.03000
C1406       C  0.33200167  0.75974976  0.21796996    -0.07500
C1407       C  0.32388173  0.76513395  0.20207866     0.06100
C1408       C  0.30529517  0.76764033  0.20160367    -0.02500
Br1409     Br  0.29306665  0.77594965  0.18081098    -0.02200
H1410       H  0.28105060  0.76752461  0.21660817     0.10000
H1411       H  0.34629522  0.75771211  0.21844490     0.08000
Br1412     Br  0.33432385  0.74834494  0.25383313    -0.02600
C1413       C  0.23127295  0.74880923  0.31270323    -0.09300
C1414       C  0.21901812  0.76238431  0.30932024     0.06900
C1415       C  0.22202399  0.77414082  0.29516734    -0.03000
C1416       C  0.23731290  0.77230537  0.28471061    -0.07500
C1417       C  0.24973732  0.75873553  0.28805135     0.06100
C1418       C  0.24647821  0.74680259  0.30214027    -0.02500
Br1419     Br  0.26222724  0.72766628  0.30784304    -0.02200
H1420       H  0.22898284  0.73972347  0.32362079     0.10000
H1421       H  0.23935838  0.78128482  0.27366627     0.08000
Br1422     Br  0.20543202  0.79264885  0.28951795    -0.02600
C1423       C  0.23553686  0.70260348  0.26188091    -0.09300
C1424       C  0.21894977  0.70999883  0.25758061     0.06900
C1425       C  0.21758633  0.72840716  0.25483875    -0.03000
C1426       C  0.23282639  0.73898616  0.25609816    -0.07500
C1427       C  0.24938973  0.73166717  0.26086519     0.06100
C1428       C  0.25062232  0.71324981  0.26380125    -0.02500
Br1429     Br  0.27214438  0.70180601  0.27119113    -0.02200
H1430       H  0.23668517  0.68845879  0.26415085     0.10000
H1431       H  0.23176787  0.75303578  0.25332418     0.08000
Br1432     Br  0.19554237  0.73967273  0.24853364    -0.02600
C1433       C  0.29802930  0.70235499  0.03933144    -0.09300
C1434       C  0.31211830  0.69203023  0.03281038     0.06900
C1435       C  0.31630596  0.67593883  0.04131731    -0.03000
C1436       C  0.30669378  0.67061778  0.05638290    -0.07500
C1437       C  0.29295117  0.68124863  0.06327391     0.06100
C1438       C  0.28860682  0.69723902  0.05453294    -0.02500
Br1439     Br  0.26919311  0.71204994  0.06200689    -0.02200
H1440       H  0.29418063  0.71435284  0.03240894     0.10000
H1441       H  0.31016914  0.65828988  0.06291344     0.08000
Br1442     Br  0.33493609  0.66082770  0.03266468    -0.02600
C1443       C  0.26249031  0.73544827  0.22088592    -0.09300
C1444       C  0.27616368  0.73178676  0.23313098     0.06900
C1445       C  0.28770517  0.71738844  0.22982467    -0.03000
C1446       C  0.28479455  0.70643705  0.21511945    -0.07500
C1447       C  0.27108593  0.71005801  0.20300243     0.06100
C1448       C  0.26009081  0.72493789  0.20575367    -0.02500
Br1449     Br  0.24128113  0.73115142  0.18963882    -0.02200
H1450       H  0.25379119  0.74671793  0.22302054     0.10000
H1451       H  0.29351009  0.69518631  0.21293456     0.08000
Br1452     Br  0.30766846  0.71191004  0.24469676    -0.02600
C1453       C  0.33008650  0.80302792  0.26940673    -0.09300
C1454       C  0.32666456  0.81523115  0.25580815     0.06900
C1455       C  0.31191374  0.81269216  0.24458155    -0.03000
C1456       C  0.30092829  0.79793712  0.24696771    -0.07500
C1457       C  0.30434139  0.78555466  0.26050903     0.06100
C1458       C  0.31893303  0.78840359  0.27201379    -0.02500
Br1459     Br  0.32457158  0.77283447  0.29130201    -0.02200
H1460       H  0.34139430  0.80500283  0.27815471     0.10000
H1461       H  0.28958225  0.79612217  0.23824670     0.08000
Br1462     Br  0.30668590  0.82859400  0.22538899    -0.02600
C1463       C  0.27738226  0.79999962  0.31651431    -0.09300
C1464       C  0.27200890  0.81611556  0.30891554     0.06900
C1465       C  0.26913330  0.81703237  0.29042418    -0.03000
C1466       C  0.27147155  0.80188565  0.28002744    -0.07500
C1467       C  0.27707904  0.78580363  0.28759077     0.06100
C1468       C  0.28004325  0.78495690  0.30605890    -0.02500
Br1469     Br  0.28806604  0.76396197  0.31787393    -0.02200
H1470       H  0.27977029  0.79914891  0.33069003     0.10000
H1471       H  0.26859853  0.80255987  0.26593715     0.08000
Br1472     Br  0.26084160  0.83805706  0.27866202    -0.02600
C1473       C  0.05329423  0.71437704  0.34632930    -0.09300
C1474       C  0.04876340  0.71626506  0.32832442     0.06900
C1475       C  0.05978379  0.72649927  0.31720569    -0.03000
C1476       C  0.07545173  0.73391970  0.32394358    -0.07500
C1477       C  0.08018705  0.73187073  0.34188800     0.06100
C1478       C  0.06883384  0.72210852  0.35319220    -0.02500
Br1479     Br  0.07430521  0.71795487  0.37774221    -0.02200
H1480       H  0.04477858  0.70667794  0.35502847     0.10000
H1481       H  0.08382258  0.74167601  0.31515869     0.08000
Br1482     Br  0.05348432  0.73177962  0.29309001    -0.02600
C1483       C  0.06945658  0.67734799  0.27859336    -0.09300
C1484       C  0.08211206  0.67135560  0.29090421     0.06900
C1485       C  0.07815698  0.67227050  0.30915909    -0.03000
C1486       C  0.06176259  0.67917794  0.31484360    -0.07500
C1487       C  0.04920858  0.68572194  0.30258768     0.06100
C1488       C  0.05318569  0.68457544  0.28422498    -0.02500
Br1489     Br  0.03763426  0.69384234  0.26617892    -0.02200
H1490       H  0.07251034  0.67696337  0.26452591     0.10000
H1491       H  0.05887284  0.67958620  0.32893482     0.08000
Br1492     Br  0.09475392  0.66417134  0.32676555    -0.02600
C1493       C  0.76792701  0.74028015  0.21537065    -0.09300
C1494       C  0.75744675  0.73536913  0.22999780     0.06900
C1495       C  0.74924850  0.71858046  0.23015415    -0.03000
C1496       C  0.75194069  0.70690181  0.21597440    -0.07500
C1497       C  0.76217905  0.71196166  0.20123955     0.06100
C1498       C  0.77007396  0.72888685  0.20090805    -0.02500
Br1499     Br  0.78452873  0.73682752  0.18145578    -0.02200
H1500       H  0.77447234  0.75307775  0.21521929     0.10000
H1501       H  0.74568650  0.69395271  0.21625796     0.08000
Br1502     Br  0.73392131  0.71107982  0.24901344    -0.02600
C1503       C  0.70280456  0.76144199  0.21266138    -0.09300
C1504       C  0.71009666  0.76944463  0.19750201     0.06900
C1505       C  0.72822475  0.77425590  0.19742129    -0.03000
C1506       C  0.73858303  0.77145258  0.21258201    -0.07500
C1507       C  0.73130600  0.76347846  0.22778769     0.06100
C1508       C  0.71330267  0.75823197  0.22766387    -0.02500
Br1509     Br  0.70240485  0.74654013  0.24741942    -0.02200
H1510       H  0.68890870  0.75751398  0.21275646     0.10000
H1511       H  0.75231087  0.77589076  0.21266473     0.08000
Br1512     Br  0.73920564  0.78575795  0.17749656    -0.02600
C1513       C  0.97541546  0.69887222  0.28625777    -0.09300
C1514       C  0.98293670  0.68849361  0.29975443     0.06900
C1515       C  0.97518770  0.67198981  0.30388490    -0.03000
C1516       C  0.95963754  0.66651399  0.29507714    -0.07500
C1517       C  0.95163509  0.67732753  0.28212604     0.06100
C1518       C  0.95988571  0.69350065  0.27751593    -0.02500
Br1519     Br  0.95125397  0.70827081  0.25860140    -0.02200
H1520       H  0.98180419  0.71113530  0.28233162     0.10000
H1521       H  0.95353898  0.65399642  0.29866790     0.08000
Br1522     Br  0.98528811  0.65669892  0.32158663    -0.02600
C1523       C  0.79689052  0.70774082  0.26863607    -0.09300
C1524       C  0.81172135  0.71106728  0.25779741     0.06900
C1525       C  0.81204714  0.72645802  0.24718675    -0.03000
C1526       C  0.79777413  0.73833039  0.24781496    -0.07500
C1527       C  0.78298882  0.73504045  0.25871865     0.06100
C1528       C  0.78261342  0.71961581  0.26924787    -0.02500
Br1529     Br  0.76312627  0.71413282  0.28477179    -0.02200
H1530       H  0.79650766  0.69593104  0.27682652     0.10000
H1531       H  0.79810352  0.75011581  0.23960347     0.08000
Br1532     Br  0.83086786  0.73127260  0.23061563    -0.02600
C1533       C  0.97539352  0.73100260  0.31644179    -0.09300
C1534       C  0.98284043  0.71756487  0.32694743     0.06900
C1535       C  0.97516088  0.71385209  0.34363099    -0.03000
C1536       C  0.95997105  0.72319356  0.34930140    -0.07500
C1537       C  0.95214103  0.73625044  0.33848605     0.06100
C1538       C  0.96015662  0.74021788  0.32196646    -0.02500
Br1539     Br  0.95171233  0.75896752  0.30690909    -0.02200
H1540       H  0.98165813  0.73457401  0.30398648     0.10000
H1541       H  0.95406983  0.72001863  0.36204565     0.08000
Br1542     Br  0.98505256  0.69614040  0.35903377    -0.02600
C1543       C  0.81293006  0.77523763  0.29146230    -0.09300
C1544       C  0.81288675  0.76573377  0.30748383     0.06900
C1545       C  0.79823566  0.75483031  0.31158717    -0.03000
C1546       C  0.78382627  0.75380583  0.29986994    -0.07500
C1547       C  0.78358904  0.76360981  0.28405635     0.06100
C1548       C  0.79840495  0.77429488  0.27979305    -0.02500
Br1549     Br  0.79957860  0.78746103  0.25801592    -0.02200
H1550       H  0.82422440  0.78353900  0.28810356     0.10000
H1551       H  0.77279235  0.74524121  0.30314694     0.08000
Br1552     Br  0.79770672  0.74023948  0.33246153    -0.02600
C1553       C  0.70447225  0.80858893  0.26281586    -0.09300
C1554       C  0.70916094  0.82135640  0.25015205     0.06900
C1555       C  0.72434521  0.81879687  0.23956635    -0.03000
C1556       C  0.73476360  0.80362373  0.24190722    -0.07500
C1557       C  0.73018834  0.79078504  0.25465150     0.06100
C1558       C  0.71486340  0.79338246  0.26516922    -0.02500
Br1559     Br  0.70731742  0.77667099  0.28274108    -0.02200
H1560       H  0.69265961  0.81046720  0.27088580     0.10000
H1561       H  0.74665020  0.80193090  0.23392213     0.08000
Br1562     Br  0.73115532  0.83556499  0.22166459    -0.02600
C1563       C  0.75262570  0.80284078  0.31320804    -0.09300
C1564       C  0.75784964  0.81952475  0.30682438     0.06900
C1565       C  0.76183113  0.82155547  0.28861654    -0.03000
C1566       C  0.76093949  0.80689682  0.27735328    -0.07500
C1567       C  0.75557476  0.79024647  0.28369296     0.06100
C1568       C  0.75119870  0.78831277  0.30179197    -0.02500
Br1569     Br  0.74256657  0.76646685  0.31159479    -0.02200
H1570       H  0.74934588  0.80116522  0.32712691     0.10000
H1571       H  0.76458205  0.80847560  0.26352727     0.08000
Br1572     Br  0.76963958  0.84353324  0.27836136    -0.02600
C1573       C  0.73649332  0.96418994  0.32331293    -0.09300
C1574       C  0.73254337  0.95671400  0.33993783     0.06900
C1575       C  0.71874449  0.96407999  0.35026522    -0.03000
C1576       C  0.70932451  0.97882899  0.34398361    -0.07500
C1577       C  0.71343526  0.98639631  0.32747563     0.06100
C1578       C  0.72726716  0.97909153  0.31716684    -0.02500
Br1579     Br  0.73463995  0.98950949  0.29509822    -0.02200
H1580       H  0.74700802  0.95856654  0.31520403     0.10000
H1581       H  0.69887417  0.98455667  0.35209462     0.08000
Br1582     Br  0.71158918  0.95395884  0.37251377    -0.02600
C1583       C  0.66276240  0.96217665  0.30239804    -0.09300
C1584       C  0.66976617  0.95656158  0.28603941     0.06900
C1585       C  0.68279632  0.96699006  0.27754404    -0.03000
C1586       C  0.68888628  0.98255292  0.28558299    -0.07500
C1587       C  0.68256988  0.98772153  0.30231553     0.06100
C1588       C  0.66912720  0.97765632  0.31058904    -0.02500
Br1589     Br  0.65915192  0.98469774  0.33295418    -0.02200
H1590       H  0.65269528  0.95427521  0.30901331     0.10000
H1591       H  0.69873719  0.99057914  0.27881693     0.08000
Br1592     Br  0.69256433  0.96060309  0.25486197    -0.02600
C1593       C  0.74101303  0.07091722  0.32750623    -0.09300
C1594       C  0.73420063  0.08145876  0.34128924     0.06900
C1595       C  0.71764931  0.07698642  0.34896997    -0.03000
C1596       C  0.70826108  0.06213302  0.34278683    -0.07500
C1597       C  0.71526045  0.05153242  0.32915502     0.06100
C1598       C  0.73182057  0.05594481  0.32158300    -0.02500
Br1599     Br  0.74235177  0.04195879  0.30303542    -0.02200
H1600       H  0.75365499  0.07427362  0.32140752     0.10000
H1601       H  0.69551519  0.05878733  0.34866573     0.08000
Br1602     Br  0.70682039  0.09123347  0.36710827    -0.02600
C1603       C  0.78340591  0.20549734  0.28138515    -0.09300
C1604       C  0.77573579  0.20986085  0.29782724     0.06900
C1605       C  0.76714651  0.22638961  0.29981486    -0.03000
C1606       C  0.76678926  0.23832498  0.28562054    -0.07500
C1607       C  0.77503936  0.23419299  0.26945064     0.06100
C1608       C  0.78319996  0.21752340  0.26726979    -0.02500
Br1609     Br  0.79432147  0.21051116  0.24542807    -0.02200
H1610       H  0.78986465  0.19276917  0.27959856     0.10000
H1611       H  0.76023922  0.25102192  0.28725968     0.08000
Br1612     Br  0.75478805  0.23308897  0.32108993    -0.02600
C1613       C  0.69542862  0.06048450  0.29002875    -0.09300
C1614       C  0.68512119  0.05316993  0.30368858     0.06900
C1615       C  0.66920340  0.06159636  0.30883163    -0.03000
C1616       C  0.66378518  0.07715778  0.30020061    -0.07500
C1617       C  0.67425122  0.08460352  0.28665895     0.06100
C1618       C  0.69021388  0.07611983  0.28158549    -0.02500
Br1619     Br  0.70491771  0.08464921  0.26254140    -0.02200
H1620       H  0.70748748  0.05384899  0.28575064     0.10000
H1621       H  0.65159364  0.08366977  0.30432361     0.08000
Br1622     Br  0.65485206  0.05255947  0.32785721    -0.02600
C1623       C  0.71563201  0.23167145  0.25079509    -0.09300
C1624       C  0.71692249  0.21440825  0.24400588     0.06900
C1625       C  0.73308137  0.20865024  0.23646611    -0.03000
C1626       C  0.74775506  0.21999126  0.23617066    -0.07500
C1627       C  0.74664366  0.23714512  0.24318436     0.06100
C1628       C  0.73042346  0.24299085  0.25059897    -0.02500
Br1629     Br  0.72812064  0.26596483  0.26128806    -0.02200
H1630       H  0.70328434  0.23613887  0.25677360     0.10000
H1631       H  0.76001657  0.21543556  0.23022170     0.08000
Br1632     Br  0.73556420  0.18575336  0.22559849    -0.02600
C1633       C  0.77151100  0.30336860  0.21501501    -0.09300
C1634       C  0.78008843  0.28691593  0.21406634     0.06900
C1635       C  0.79168138  0.28328788  0.19983205    -0.03000
C1636       C  0.79452967  0.29612700  0.18675974    -0.07500
C1637       C  0.78623032  0.31273629  0.18791376     0.06100
C1638       C  0.77445371  0.31626645  0.20207760    -0.02500
Br1639     Br  0.76141958  0.33808110  0.20407890    -0.02200
H1640       H  0.76264928  0.30627793  0.22596414     0.10000
H1641       H  0.80360430  0.29332187  0.17592021     0.08000
Br1642     Br  0.80444559  0.26130893  0.19815428    -0.02600
C1643       C  0.73245160  0.25247641  0.18973653    -0.09300
C1644       C  0.71986333  0.26605930  0.19181525     0.06900
C1645       C  0.72220993  0.27869534  0.20534836    -0.03000
C1646       C  0.73662040  0.27718414  0.21702640    -0.07500
C1647       C  0.74915302  0.26348397  0.21516002     0.06100
C1648       C  0.74721961  0.25130659  0.20107508    -0.02500
Br1649     Br  0.76460357  0.23329864  0.19635861    -0.02200
H1650       H  0.73089034  0.24288715  0.17912591     0.10000
H1651       H  0.73790057  0.28660603  0.22779916     0.08000
Br1652     Br  0.70571528  0.29782860  0.20878841    -0.02600
C1653       C  0.83049074  0.25537029  0.28536107    -0.09300
C1654       C  0.82491747  0.26371091  0.30108981     0.06900
C1655       C  0.80768227  0.27114312  0.30186346    -0.03000
C1656       C  0.79641390  0.27003452  0.28709092    -0.07500
C1657       C  0.80195452  0.26156964  0.27144623     0.06100
C1658       C  0.81918049  0.25420281  0.27063270    -0.02500
Br1659     Br  0.82804741  0.24258236  0.24979777    -0.02200
H1660       H  0.84371870  0.24965411  0.28454710     0.10000
H1661       H  0.78327478  0.27595290  0.28774300     0.08000
Br1662     Br  0.79927250  0.28415084  0.32209378    -0.02600
C1663       C  0.81014130  0.31942101  0.25320684    -0.09300
C1664       C  0.82721057  0.31786227  0.24570415     0.06900
C1665       C  0.83200957  0.30179700  0.23729076    -0.03000
C1666       C  0.81993913  0.28768517  0.23681365    -0.07500
C1667       C  0.80305507  0.28918033  0.24456765     0.06100
C1668       C  0.79813609  0.30522945  0.25276976    -0.02500
Br1669     Br  0.77512985  0.30837448  0.26345541    -0.02200
H1670       H  0.80621019  0.33163584  0.25968989     0.10000
H1671       H  0.82362350  0.27561640  0.22999421     0.08000
Br1672     Br  0.85414126  0.29864754  0.22488806    -0.02600
C1673       C  0.71835282  0.33696490  0.04933836    -0.09300
C1674       C  0.71381160  0.35007306  0.03691402     0.06900
C1675       C  0.71983877  0.36758389  0.04000086    -0.03000
C1676       C  0.73101432  0.37130586  0.05449700    -0.07500
C1677       C  0.73586023  0.35808926  0.06679365     0.06100
C1678       C  0.72842755  0.34090887  0.06450188    -0.02500
Br1679     Br  0.72936115  0.32242049  0.08203518    -0.02200
H1680       H  0.71392944  0.32345031  0.04736747     0.10000
H1681       H  0.73593224  0.38470389  0.05606361     0.08000
Br1682     Br  0.71254266  0.38723133  0.02545513    -0.02600
C1683       C  0.66673691  0.32976098  0.06674257    -0.09300
C1684       C  0.66564951  0.31123959  0.06840551     0.06900
C1685       C  0.67146673  0.30050272  0.05425301    -0.03000
C1686       C  0.67874892  0.30831986  0.03906021    -0.07500
C1687       C  0.68009116  0.32685878  0.03738323     0.06100
C1688       C  0.67349751  0.33762329  0.05124035    -0.02500
Br1689     Br  0.67248014  0.36295169  0.04932739    -0.02200
H1690       H  0.66217867  0.33814290  0.07751818     0.10000
H1691       H  0.68366404  0.29982058  0.02853364     0.08000
Br1692     Br  0.67086678  0.27507984  0.05537783    -0.02600
C1693       C  0.95957466  0.32083515  0.35517740    -0.09300
C1694       C  0.95582861  0.30438975  0.34722266     0.06900
C1695       C  0.96774402  0.29762424  0.33441506    -0.03000
C1696       C  0.98304966  0.30720383  0.32984044    -0.07500
C1697       C  0.98652349  0.32387705  0.33733296     0.06100
C1698       C  0.97470429  0.33065220  0.35020340    -0.02500
Br1699     Br  0.97892396  0.35303678  0.36150754    -0.02200
H1700       H  0.95051623  0.32622213  0.36500303     0.10000
H1701       H  0.99228806  0.30162482  0.32029986     0.08000
Br1702     Br  0.96408345  0.27506692  0.32318641    -0.02600
C1703       C  0.96422052  0.34886150  0.28633946    -0.09300
C1704       C  0.95556633  0.36461155  0.29134872     0.06900
C1705       C  0.96249525  0.37453572  0.30570588    -0.03000
C1706       C  0.97763200  0.36843787  0.31481488    -0.07500
C1707       C  0.98604833  0.35257973  0.30984742     0.06100
C1708       C  0.97945987  0.34298839  0.29523220    -0.02500
Br1709     Br  0.99143385  0.32237601  0.28623927    -0.02200
H1710       H  0.95928375  0.34120988  0.27518506     0.10000
H1711       H  0.98289796  0.37611803  0.32579541     0.08000
Br1712     Br  0.95144721  0.39587948  0.31413880    -0.02600
C1713       C  0.07852440  0.37230204  0.30846316    -0.09300
C1714       C  0.08279261  0.36495446  0.29185898     0.06900
C1715       C  0.07113242  0.35250153  0.28415416    -0.03000
C1716       C  0.05557484  0.34755338  0.29306923    -0.07500
C1717       C  0.05165519  0.35427299  0.30999332     0.06100
C1718       C  0.06312022  0.36697123  0.31761069    -0.02500
Br1719     Br  0.05800825  0.37755943  0.34019444    -0.02200
H1720       H  0.08743645  0.38196271  0.31452280     0.10000
H1721       H  0.04654349  0.33817939  0.28683079     0.08000
Br1722     Br  0.07577778  0.34202898  0.26138302    -0.02600
C1723       C  0.22940054  0.32667977  0.27296558    -0.09300
C1724       C  0.21813709  0.32436005  0.25830619     0.06900
C1725       C  0.22163068  0.31074318  0.24607551    -0.03000
C1726       C  0.23652127  0.29989552  0.24842371    -0.07500
C1727       C  0.24828400  0.30256735  0.26272030     0.06100
C1728       C  0.24436246  0.31586186  0.27532007    -0.02500
Br1729     Br  0.25911421  0.32034676  0.29559148    -0.02200
H1730       H  0.22667259  0.33712547  0.28247250     0.10000
H1731       H  0.23904184  0.28937515  0.23895729     0.08000
Br1732     Br  0.20672838  0.30680327  0.22575461    -0.02600
C1733       C  0.07731646  0.30615257  0.33329054    -0.09300
C1734       C  0.08515716  0.31128370  0.34946145     0.06900
C1735       C  0.07623228  0.32385270  0.36018391    -0.03000
C1736       C  0.06011657  0.33133542  0.35434270    -0.07500
C1737       C  0.05256652  0.32637319  0.33801950     0.06100
C1738       C  0.06104610  0.31329099  0.32772398    -0.02500
Br1739     Br  0.05040661  0.30397029  0.30650187    -0.02200
H1740       H  0.08369488  0.29619857  0.32507671     0.10000
H1741       H  0.05349099  0.34116088  0.36251854     0.08000
Br1742     Br  0.08575513  0.33203496  0.38237804    -0.02600
C1743       C  0.23278520  0.26798097  0.27937714    -0.09300
C1744       C  0.24870988  0.27335553  0.28765544     0.06900
C1745       C  0.24915200  0.27461129  0.30636507    -0.03000
C1746       C  0.23384423  0.27086729  0.31627270    -0.07500
C1747       C  0.21782523  0.26615155  0.30791004     0.06100
C1748       C  0.21737930  0.26462045  0.28928234    -0.02500
Br1749     Br  0.19637807  0.25714439  0.27681362    -0.02200
H1750       H  0.23238453  0.26628798  0.26509281     0.10000
H1751       H  0.23432039  0.27214526  0.33060692     0.08000
Br1752     Br  0.26983678  0.28202723  0.31926126    -0.02600
C1753       C  0.28619290  0.22927321  0.31128458    -0.09300
C1754       C  0.27249610  0.21727363  0.30740274     0.06900
C1755       C  0.26152471  0.22010765  0.29255481    -0.03000
C1756       C  0.26388912  0.23529150  0.28224427    -0.07500
C1757       C  0.27725153  0.24767791  0.28639487     0.06100
C1758       C  0.28886883  0.24425462  0.30072118    -0.02500
Br1759     Br  0.30817900  0.25968397  0.30691220    -0.02200
H1760       H  0.29477336  0.22700697  0.32264995     0.10000
H1761       H  0.25518408  0.23754950  0.27097975     0.08000
Br1762     Br  0.24265626  0.20410013  0.28637676    -0.02600
C1763       C  0.29648862  0.23397865  0.25271030    -0.09300
C1764       C  0.30409353  0.24981726  0.25899614     0.06900
C1765       C  0.32271402  0.25050070  0.26167469    -0.03000
C1766       C  0.33317673  0.23551137  0.25827079    -0.07500
C1767       C  0.32539970  0.21956300  0.25265530     0.06100
C1768       C  0.30685188  0.21884657  0.24991474    -0.02500
Br1769     Br  0.29504217  0.19786701  0.24157675    -0.02200
H1770       H  0.28233341  0.23339737  0.24994617     0.10000
H1771       H  0.34744431  0.23617899  0.26044093     0.08000
Br1772     Br  0.33468255  0.27107949  0.27054260    -0.02600
C1773       C  0.32935900  0.29000756  0.21747400    -0.09300
C1774       C  0.32643474  0.27705808  0.20446617     0.06900
C1775       C  0.31190074  0.26543292  0.20611949    -0.03000
C1776       C  0.30083329  0.26654179  0.22099874    -0.07500
C1777       C  0.30388571  0.27928942  0.23428637     0.06100
C1778       C  0.31805190  0.29141365  0.23217387    -0.02500
Br1779     Br  0.32289357  0.30990842  0.24892950    -0.02200
H1780       H  0.34046299  0.29910052  0.21614169     0.10000
H1781       H  0.28973322  0.25743577  0.22222222     0.08000
Br1782     Br  0.30696245  0.24758114  0.18864995    -0.02600
C1783       C  0.27525570  0.33473296  0.22280119    -0.09300
C1784       C  0.27024230  0.32766449  0.20627443     0.06900
C1785       C  0.26717702  0.30930348  0.20479586    -0.03000
C1786       C  0.26990559  0.29831824  0.21944940    -0.07500
C1787       C  0.27559641  0.30520920  0.23581864     0.06100
C1788       C  0.27791140  0.32370020  0.23754187    -0.02500
Br1789     Br  0.28492630  0.33466685  0.25940906    -0.02200
H1790       H  0.27741857  0.34887109  0.22417444     0.10000
H1791       H  0.26720730  0.28426475  0.21818493     0.08000
Br1792     Br  0.25781467  0.29859914  0.18363009    -0.02600
C1793       C  0.33159452  0.97635077  0.28670475    -0.09300
C1794       C  0.34341741  0.98517711  0.29808525     0.06900
C1795       C  0.36112437  0.97905285  0.29944462    -0.03000
C1796       C  0.36659595  0.96407449  0.28981577    -0.07500
C1797       C  0.35468099  0.95500597  0.27862046     0.06100
C1798       C  0.33707023  0.96153582  0.27689362    -0.02500
Br1799     Br  0.32027006  0.95192762  0.26021639    -0.02200
H1800       H  0.31813594  0.98132868  0.28508654     0.10000
H1801       H  0.38013328  0.95930850  0.29135385     0.08000
Br1802     Br  0.37814142  0.99047166  0.31464696    -0.02600
C1803       C  0.28933103  0.96736342  0.33358990    -0.09300
C1804       C  0.29993663  0.95394904  0.34089061     0.06900
C1805       C  0.31859552  0.95595425  0.34110009    -0.03000
C1806       C  0.32636174  0.97150151  0.33447684    -0.07500
C1807       C  0.31576390  0.98500139  0.32713018     0.06100
C1808       C  0.29706949  0.98268777  0.32651708    -0.02500
Br1809     Br  0.28154066  0.99941716  0.31506407    -0.02200
H1810       H  0.27500507  0.96564523  0.33286518     0.10000
H1811       H  0.34070274  0.97307030  0.33509027     0.08000
Br1812     Br  0.33390341  0.93781440  0.35040091    -0.02600
C1813       C  0.32096227  0.05719199  0.34451176    -0.09300
C1814       C  0.31583480  0.05052618  0.32784325     0.06900
C1815       C  0.30175613  0.05879335  0.31868340    -0.03000
C1816       C  0.29351486  0.07382529  0.32588566    -0.07500
C1817       C  0.29877505  0.08076160  0.34243884     0.06100
C1818       C  0.31265472  0.07222411  0.35180545    -0.02500
Br1819     Br  0.32174067  0.08117332  0.37387438    -0.02200
H1820       H  0.33163746  0.05077641  0.35177857     0.10000
H1821       H  0.28281566  0.08009225  0.31852253     0.08000
Br1822     Br  0.29283546  0.04957968  0.29665190    -0.02600
C1823       C  0.35081021  0.06428356  0.30800693    -0.09300
C1824       C  0.34291407  0.05075598  0.29787891     0.06900
C1825       C  0.34179882  0.05285782  0.27921277    -0.03000
C1826       C  0.34891549  0.06799269  0.27109521    -0.07500
C1827       C  0.35673690  0.08144763  0.28127471     0.06100
C1828       C  0.35740597  0.07965043  0.29988587    -0.02500
Br1829     Br  0.36742253  0.09777971  0.31470406    -0.02200
H1830       H  0.35201589  0.06283621  0.32226990     0.10000
H1831       H  0.34783659  0.06952856  0.25681828     0.08000
Br1832     Br  0.32975335  0.03606293  0.26419477    -0.02600
C1833       C  0.34593583  0.29837054  0.05796420    -0.09300
C1834       C  0.36053937  0.30614693  0.06664023     0.06900
C1835       C  0.36838781  0.32151433  0.05944860    -0.03000
C1836       C  0.36137691  0.32902011  0.04393794    -0.07500
C1837       C  0.34668469  0.32131620  0.03539323     0.06100
C1838       C  0.33916569  0.30568201  0.04228270    -0.02500
Br1839     Br  0.31982431  0.29382252  0.03055437    -0.02200
H1840       H  0.33984046  0.28651693  0.06337614     0.10000
H1841       H  0.36741535  0.34087980  0.03850334     0.08000
Br1842     Br  0.38800807  0.33324493  0.07080757    -0.02600
C1843       C  0.31742591  0.36921109  0.06100527    -0.09300
C1844       C  0.30229798  0.36037930  0.06751772     0.06900
C1845       C  0.29511890  0.34615284  0.05768311    -0.03000
C1846       C  0.30334086  0.34069782  0.04190588    -0.07500
C1847       C  0.31873689  0.34918799  0.03565848     0.06100
C1848       C  0.32568128  0.36368685  0.04521280    -0.02500
Br1849     Br  0.34633855  0.37627921  0.03714031    -0.02200
H1850       H  0.32301145  0.38022808  0.06838409     0.10000
H1851       H  0.29764396  0.32982019  0.03440627     0.08000
Br1852     Br  0.27352194  0.33442407  0.06465427    -0.02600
C1853       C  0.06870708  0.37030434  0.71036558    -0.09300
C1854       C  0.07455035  0.35870820  0.72379655     0.06900
C1855       C  0.06520582  0.34268403  0.72651364    -0.03000
C1856       C  0.05091320  0.33819998  0.71546887    -0.07500
C1857       C  0.04569409  0.34928483  0.70146466     0.06100
C1858       C  0.05432988  0.36573088  0.69929356    -0.02500
Br1859     Br  0.04671736  0.38233559  0.68155233    -0.02200
H1860       H  0.07554260  0.38277794  0.70825068     0.10000
H1861       H  0.04352471  0.32614961  0.71811106     0.08000
Br1862     Br  0.07038468  0.32699204  0.74593781    -0.02600
C1863       C  0.20727130  0.30154528  0.76511020    -0.09300
C1864       C  0.20948759  0.31667431  0.75449233     0.06900
C1865       C  0.22507224  0.31848703  0.74418428    -0.03000
C1866       C  0.23809707  0.30525656  0.74466475    -0.07500
C1867       C  0.23599943  0.29030366  0.75550387     0.06100
C1868       C  0.22046082  0.28847199  0.76580356    -0.02500
Br1869     Br  0.21654940  0.26818951  0.78068104    -0.02200
H1870       H  0.19534780  0.30001815  0.77308668     0.10000
H1871       H  0.24981474  0.30652631  0.73637953     0.08000
Br1872     Br  0.22879393  0.33811740  0.72839593    -0.02600
C1873       C  0.06854025  0.31668866  0.64794097    -0.09300
C1874       C  0.07728714  0.30443305  0.65894937     0.06900
C1875       C  0.07018765  0.30090771  0.67598772    -0.03000
C1876       C  0.05501123  0.30993639  0.68185852    -0.07500
C1877       C  0.04676107  0.32275774  0.67120585     0.06100
C1878       C  0.05340200  0.32583179  0.65394461    -0.02500
Br1879     Br  0.04224819  0.34247504  0.63818487    -0.02200
H1880       H  0.07375406  0.31949968  0.63481840     0.10000
H1881       H  0.04936550  0.30656855  0.69464346     0.08000
Br1882     Br  0.07981091  0.28304448  0.69144557    -0.02600
C1883       C  0.22847785  0.27394821  0.69691891    -0.09300
C1884       C  0.21077464  0.26877368  0.69991485     0.06900
C1885       C  0.20594017  0.26175046  0.71658893    -0.03000
C1886       C  0.21878970  0.26002197  0.72988177    -0.07500
C1887       C  0.23649395  0.26506621  0.72685824     0.06100
C1888       C  0.24125974  0.27243567  0.71033853    -0.02500
Br1889     Br  0.26463452  0.28174465  0.70588547    -0.02200
H1890       H  0.23226436  0.27960359  0.68423453     0.10000
H1891       H  0.21496066  0.25463634  0.74264580     0.08000
Br1892     Br  0.18239580  0.25319360  0.72168459    -0.02600
C1893       C  0.30381813  0.20717854  0.75612612    -0.09300
C1894       C  0.31977039  0.21299888  0.74835252     0.06900
C1895       C  0.32126632  0.23078788  0.74281855    -0.03000
C1896       C  0.30684901  0.24230821  0.74501476    -0.07500
C1897       C  0.29096041  0.23651867  0.75294559     0.06100
C1898       C  0.28954705  0.21880335  0.75862826    -0.02500
Br1899     Br  0.26874388  0.20980449  0.77019172    -0.02200
H1900       H  0.30256039  0.19357165  0.76057445     0.10000
H1901       H  0.30792283  0.25582904  0.74027490     0.08000
Br1902     Br  0.34210819  0.23982014  0.73114889    -0.02600
C1903       C  0.27580230  0.23840999  0.71328310    -0.09300
C1904       C  0.26280408  0.23663115  0.72654175     0.06900
C1905       C  0.25069585  0.22235798  0.72569231    -0.03000
C1906       C  0.25211994  0.20993159  0.71196784    -0.07500
C1907       C  0.26506794  0.21183262  0.69866661     0.06100
C1908       C  0.27685762  0.22634824  0.69927357    -0.02500
Br1909     Br  0.29526717  0.22990538  0.68193849    -0.02200
H1910       H  0.28525496  0.24923927  0.71388059     0.10000
H1911       H  0.24292923  0.19885567  0.71153587     0.08000
Br1912     Br  0.23214654  0.21902343  0.74290935    -0.02600
C1913       C  0.33084844  0.35785176  0.95722835    -0.09300
C1914       C  0.31925015  0.34992132  0.96953692     0.06900
C1915       C  0.30082118  0.34935571  0.96569901    -0.03000
C1916       C  0.29440892  0.35647181  0.94974090    -0.07500
C1917       C  0.30606250  0.36416300  0.93740397     0.06100
C1918       C  0.32442287  0.36473354  0.94117411    -0.02500
Br1919     Br  0.34124015  0.37416405  0.92448975    -0.02200
H1920       H  0.34498390  0.35858654  0.96006132     0.10000
H1921       H  0.28031312  0.35555895  0.94671251     0.08000
Br1922     Br  0.28393923  0.33811204  0.98121662    -0.02600
C1923       C  0.27557501  0.32007076  0.78896104    -0.09300
C1924       C  0.26817640  0.31833242  0.80599162     0.06900
C1925       C  0.25900237  0.30262299  0.81046137    -0.03000
C1926       C  0.25729257  0.28909805  0.79789731    -0.07500
C1927       C  0.26494064  0.29072997  0.78101824     0.06100
C1928       C  0.27424622  0.30631719  0.77658479    -0.02500
Br1929     Br  0.28568236  0.30922171  0.75397051    -0.02200
H1930       H  0.28273151  0.33203234  0.78540097     0.10000
H1931       H  0.24991768  0.27727544  0.80132099     0.08000
Br1932     Br  0.24767878  0.29917641  0.83306111    -0.02600
C1933       C  0.34179639  0.29670435  0.94763300    -0.09300
C1934       C  0.35830397  0.30109359  0.93991280     0.06900
C1935       C  0.36835902  0.31504611  0.94745044    -0.03000
C1936       C  0.36189947  0.32409594  0.96241756    -0.07500
C1937       C  0.34537870  0.31970713  0.96995061     0.06100
C1938       C  0.33539965  0.30574902  0.96256790    -0.02500
Br1939     Br  0.31334211  0.29808448  0.97292485    -0.02200
H1940       H  0.33388901  0.28600215  0.94214160     0.10000
H1941       H  0.36974284  0.33471981  0.96815108     0.08000
Br1942     Br  0.39028542  0.32326907  0.93729149    -0.02600
C1943       C  0.30141828  0.25466333  0.81106540    -0.09300
C1944       C  0.31782469  0.26274904  0.80724358     0.06900
C1945       C  0.32041131  0.27071747  0.79047473    -0.03000
C1946       C  0.30668612  0.27043477  0.77794118    -0.07500
C1947       C  0.29044377  0.26207988  0.78167668     0.06100
C1948       C  0.28781977  0.25414419  0.79838733    -0.02500
Br1949     Br  0.26594902  0.24252102  0.80455258    -0.02200
H1950       H  0.29925025  0.24851898  0.82389868     0.10000
H1951       H  0.30864817  0.27686805  0.76523153     0.08000
Br1952     Br  0.34179026  0.28323737  0.78425092    -0.02600
C1953       C  0.37184389  0.07157080  0.70079052    -0.09300
C1954       C  0.36173772  0.07905725  0.71459983     0.06900
C1955       C  0.34591872  0.07048275  0.72004492    -0.03000
C1956       C  0.34007305  0.05525190  0.71118815    -0.07500
C1957       C  0.34986695  0.04810870  0.69705814     0.06100
C1958       C  0.36603953  0.05616539  0.69206182    -0.02500
Br1959     Br  0.38032779  0.04674267  0.67317335    -0.02200
H1960       H  0.38403664  0.07795797  0.69649018     0.10000
H1961       H  0.32794427  0.04876693  0.71552553     0.08000
Br1962     Br  0.33242919  0.07818896  0.74030214    -0.02600
C1963       C  0.32857936  0.05929434  0.65781130    -0.09300
C1964       C  0.32018738  0.04864547  0.67062827     0.06900
C1965       C  0.30329744  0.05370139  0.67705623    -0.03000
C1966       C  0.29507584  0.06907860  0.67064495    -0.07500
C1967       C  0.30329483  0.07961592  0.65765191     0.06100
C1968       C  0.32028093  0.07468443  0.65130452    -0.02500
Br1969     Br  0.33317516  0.08910849  0.63472705    -0.02200
H1970       H  0.34160922  0.05559593  0.65283399     0.10000
H1971       H  0.28216734  0.07286731  0.67587803     0.08000
Br1972     Br  0.29114803  0.04040533  0.69504165    -0.02600
C1973       C  0.23222492  0.74617569  0.68545456    -0.09300
C1974       C  0.21864194  0.75887171  0.68641655     0.06900
C1975       C  0.21874685  0.77147907  0.70016591    -0.03000
C1976       C  0.23238641  0.77123550  0.71277155    -0.07500
C1977       C  0.24607321  0.75859795  0.71184707     0.06100
C1978       C  0.24597178  0.74599538  0.69800339    -0.02500
Br1979     Br  0.26436112  0.72851918  0.69538714    -0.02200
H1980       H  0.23220944  0.73648862  0.67481765     0.10000
H1981       H  0.23226399  0.78090276  0.72340140     0.08000
Br1982     Br  0.20027068  0.78890296  0.70254183    -0.02600
C1983       C  0.21409924  0.72682176  0.74946419    -0.09300
C1984       C  0.21650953  0.70922515  0.74390931     0.06900
C1985       C  0.23311839  0.70392465  0.73698646    -0.03000
C1986       C  0.24693675  0.71620056  0.73566974    -0.07500
C1987       C  0.24458442  0.73374900  0.74122249     0.06100
C1988       C  0.22810640  0.73901201  0.74845515    -0.02500
Br1989     Br  0.22447939  0.76233725  0.75797757    -0.02200
H1990       H  0.20144852  0.73094788  0.75504704     0.10000
H1991       H  0.25956572  0.71202102  0.73019783     0.08000
Br1992     Br  0.23748093  0.68042104  0.72822701    -0.02600
C1993       C  0.29506954  0.96298287  0.66737311    -0.09300
C1994       C  0.30455998  0.95168076  0.65606442     0.06900
C1995       C  0.32227399  0.95583432  0.65153816    -0.03000
C1996       C  0.33012697  0.97139757  0.65806641    -0.07500
C1997       C  0.32052963  0.98288591  0.66921191     0.06100
C1998       C  0.30287565  0.97847480  0.67394548    -0.02500
Br1999     Br  0.28919600  0.99248800  0.69022886    -0.02200
H2000       H  0.28158236  0.95961518  0.67127846     0.10000
H2001       H  0.34375999  0.97452995  0.65449629     0.08000
Br2002     Br  0.33634321  0.94028149  0.63707639    -0.02600
C2003       C  0.27864856  0.79972912  0.68355890    -0.09300
C2004       C  0.26985066  0.81529668  0.68873292     0.06900
C2005       C  0.26199946  0.81628998  0.70568773    -0.03000
C2006       C  0.26340961  0.80194022  0.71728467    -0.07500
C2007       C  0.27258360  0.78652889  0.71229866     0.06100
C2008       C  0.28017156  0.78541931  0.69524032    -0.02500
Br2009     Br  0.29291969  0.76495668  0.68727175    -0.02200
H2010       H  0.28466943  0.79884198  0.67050180     0.10000
H2011       H  0.25722172  0.80273500  0.73026842     0.08000
Br2012     Br  0.24822791  0.83635099  0.71327073    -0.02600
C2013       C  0.37530031  0.96127066  0.70031153    -0.09300
C2014       C  0.36365062  0.94974597  0.70927508     0.06900
C2015       C  0.34563031  0.95487866  0.71136961    -0.03000
C2016       C  0.33960874  0.97096776  0.70433678    -0.07500
C2017       C  0.35105809  0.98222196  0.69487351     0.06100
C2018       C  0.36913743  0.97730732  0.69301619    -0.02500
Br2019     Br  0.38569833  0.99152939  0.67981789    -0.02200
H2020       H  0.38912329  0.95753028  0.69848272     0.10000
H2021       H  0.32584192  0.97478792  0.70638209     0.08000
Br2022     Br  0.32863697  0.94113605  0.72457753    -0.02600
C2023       C  0.33069705  0.79621992  0.73075716    -0.09300
C2024       C  0.32640739  0.81336589  0.73655493     0.06900
C2025       C  0.30928752  0.81675936  0.74345886    -0.03000
C2026       C  0.29683189  0.80302396  0.74447273    -0.07500
C2027       C  0.30098774  0.78597637  0.73828762     0.06100
C2028       C  0.31808051  0.78261145  0.73134554    -0.02500
Br2029     Br  0.32477193  0.75987125  0.72212284    -0.02200
H2030       H  0.34384775  0.79348294  0.72546878     0.10000
H2031       H  0.28377497  0.80568553  0.74998626     0.08000
Br2032     Br  0.30247491  0.83955858  0.75251493    -0.02600
C2033       C  0.28779598  0.68417726  0.94755492    -0.09300
C2034       C  0.29845411  0.67488969  0.93543786     0.06900
C2035       C  0.31669101  0.67253739  0.93919082    -0.03000
C2036       C  0.32400505  0.67947868  0.95488459    -0.07500
C2037       C  0.31340796  0.68899119  0.96699233     0.06100
C2038       C  0.29504977  0.69116304  0.96322947    -0.02500
Br2039     Br  0.27934866  0.70431399  0.97849368    -0.02200
H2040       H  0.27382037  0.68633703  0.94461564     0.10000
H2041       H  0.33802328  0.67742360  0.95765473     0.08000
Br2042     Br  0.33209875  0.66013502  0.92311102    -0.02600
C2043       C  0.28089569  0.70545382  0.78091433    -0.09300
C2044       C  0.27179104  0.70992694  0.79657807     0.06900
C2045       C  0.26269378  0.72625759  0.79758483    -0.03000
C2046       C  0.26298994  0.73782198  0.78309424    -0.07500
C2047       C  0.27244957  0.73351132  0.76764650     0.06100
C2048       C  0.28144097  0.71717996  0.76655822    -0.02500
Br2049     Br  0.29473780  0.71041277  0.74585657    -0.02200
H2050       H  0.28785711  0.69289980  0.77995724     0.10000
H2051       H  0.25580852  0.75024621  0.78386786     0.08000
Br2052     Br  0.24877199  0.73303320  0.81786233    -0.02600
C2053       C  0.34092620  0.73449356  0.94061495    -0.09300
C2054       C  0.35760985  0.72871942  0.93442158     0.06900
C2055       C  0.36740062  0.71649602  0.94476703    -0.03000
C2056       C  0.36016215  0.70996802  0.96068517    -0.07500
C2057       C  0.34330936  0.71553814  0.96659294     0.06100
C2058       C  0.33392816  0.72828462  0.95665767    -0.02500
Br2059     Br  0.31203268  0.73842054  0.96496560    -0.02200
H2060       H  0.33339288  0.74416461  0.93306048     0.10000
H2061       H  0.36760487  0.70034881  0.96839303     0.08000
Br2062     Br  0.39013258  0.70748499  0.93738359    -0.02600
C2063       C  0.30830524  0.76930406  0.79693528    -0.09300
C2064       C  0.32364620  0.75872595  0.79590247     0.06900
C2065       C  0.32689790  0.74871701  0.78045488    -0.03000
C2066       C  0.31487758  0.74943330  0.76633207    -0.07500
C2067       C  0.29970304  0.76020441  0.76718790     0.06100
C2068       C  0.29640246  0.77020743  0.78264574    -0.02500
Br2069     Br  0.27570137  0.78497027  0.78492540    -0.02200
H2070       H  0.30571988  0.77705604  0.80878039     0.10000
H2071       H  0.31722514  0.74126595  0.75476984     0.08000
Br2072     Br  0.34690635  0.73299753  0.77839262    -0.02600
C2073       C  0.73246960  0.20851484  0.77034408    -0.09300
C2074       C  0.71839441  0.20772077  0.75816748     0.06900
C2075       C  0.71664550  0.22090345  0.74509172    -0.03000
C2076       C  0.72894309  0.23473474  0.74438097    -0.07500
C2077       C  0.74305705  0.23565599  0.75656480     0.06100
C2078       C  0.74487771  0.22231279  0.76957773    -0.02500
Br2079     Br  0.76425613  0.22185104  0.78619086    -0.02200
H2080       H  0.73389721  0.19827764  0.78034749     0.10000
H2081       H  0.72748146  0.24484395  0.73427279     0.08000
Br2082     Br  0.69755589  0.22068317  0.72811613    -0.02600
C2083       C  0.77843715  0.20785782  0.71612862    -0.09300
C2084       C  0.76880072  0.21060092  0.70040707     0.06900
C2085       C  0.75882117  0.22626728  0.69836033    -0.03000
C2086       C  0.75852485  0.23883760  0.71200969    -0.07500
C2087       C  0.76852446  0.23635846  0.72758067     0.06100
C2088       C  0.77860692  0.22071002  0.72954928    -0.02500
Br2089     Br  0.79316902  0.21635366  0.74994340    -0.02200
H2090       H  0.78617424  0.19583616  0.71779364     0.10000
H2091       H  0.75062015  0.25075019  0.71038855     0.08000
Br2092     Br  0.74493530  0.23084222  0.67745285    -0.02600
C2093       C  0.95622177  0.30334635  0.67253308    -0.09300
C2094       C  0.95028066  0.30698461  0.65520467     0.06900
C2095       C  0.96002909  0.31898672  0.64462475    -0.03000
C2096       C  0.97537565  0.32711253  0.65151759    -0.07500
C2097       C  0.98108230  0.32361187  0.66894514     0.06100
C2098       C  0.97153386  0.31138887  0.67935918    -0.02500
Br2099     Br  0.97932449  0.30461726  0.70266794    -0.02200
H2100       H  0.94898224  0.29403547  0.68078632     0.10000
H2101       H  0.98274017  0.33641693  0.64337114     0.08000
Br2102     Br  0.95230405  0.32573198  0.62129239    -0.02600
C2103       C  0.82444669  0.26229243  0.71464718    -0.09300
C2104       C  0.81880773  0.26610947  0.69730654     0.06900
C2105       C  0.80062205  0.26923210  0.69393415    -0.03000
C2106       C  0.78848137  0.26878370  0.70793988    -0.07500
C2107       C  0.79407062  0.26497217  0.72530481     0.06100
C2108       C  0.81221256  0.26140774  0.72857909    -0.02500
Br2109     Br  0.82097085  0.25460910  0.75152720    -0.02200
H2110       H  0.83839206  0.25961800  0.71729030     0.10000
H2111       H  0.77460115  0.27165321  0.70528875     0.08000
Br2112     Br  0.79171985  0.27522323  0.67078557    -0.02600
C2113       C  0.95979790  0.36143178  0.71938785    -0.09300
C2114       C  0.94753526  0.36811451  0.70706504     0.06900
C2115       C  0.95165452  0.36764028  0.68884979    -0.03000
C2116       C  0.96796246  0.36061012  0.68320220    -0.07500
C2117       C  0.98012691  0.35340799  0.69545219     0.06100
C2118       C  0.97589808  0.35393611  0.71377351    -0.02500
Br2119     Br  0.99082053  0.34352173  0.73172856    -0.02200
H2120       H  0.95651216  0.36141848  0.73341132     0.10000
H2121       H  0.97111066  0.36068309  0.66916229     0.08000
Br2122     Br  0.93538968  0.37645267  0.67127615    -0.02600
C2123       C  0.80358904  0.32083991  0.73612104    -0.09300
C2124       C  0.81777079  0.32161002  0.74818760     0.06900
C2125       C  0.81937187  0.30869653  0.76151895    -0.03000
C2126       C  0.80685617  0.29510548  0.76257314    -0.07500
C2127       C  0.79267356  0.29414179  0.75046857     0.06100
C2128       C  0.79095389  0.30727470  0.73723095    -0.02500
Br2129     Br  0.77141250  0.30775293  0.72079014    -0.02200
H2130       H  0.80223302  0.33094352  0.72597191     0.10000
H2131       H  0.80829269  0.28512899  0.77281017     0.08000
Br2132     Br  0.83863285  0.30887786  0.77829338    -0.02600
C2133       C  0.65981671  0.31474151  0.95028855    -0.09300
C2134       C  0.67184172  0.30303402  0.94206760     0.06900
C2135       C  0.68886677  0.30059557  0.94972375    -0.03000
C2136       C  0.69396109  0.31062626  0.96445830    -0.07500
C2137       C  0.68231592  0.32294629  0.97215432     0.06100
C2138       C  0.66487972  0.32456380  0.96532226    -0.02500
Br2139     Br  0.64772585  0.34025669  0.97580359    -0.02200
H2140       H  0.64661308  0.31659359  0.94475455     0.10000
H2141       H  0.70700996  0.30849028  0.97023241     0.08000
Br2142     Br  0.70529101  0.28274968  0.94173581    -0.02600
C2143       C  0.71090615  0.27008528  0.79138679    -0.09300
C2144       C  0.71564817  0.26538430  0.80881510     0.06900
C2145       C  0.73338804  0.26035762  0.81244963    -0.03000
C2146       C  0.74603276  0.26059785  0.79884731    -0.07500
C2147       C  0.74126557  0.26521609  0.78144731     0.06100
C2148       C  0.72352162  0.27004731  0.77774893    -0.02500
Br2149     Br  0.71586432  0.27712780  0.75448656    -0.02200
H2150       H  0.69734872  0.27403530  0.78838442     0.10000
H2151       H  0.75963505  0.25684310  0.80181344     0.08000
Br2152     Br  0.74090696  0.25150326  0.83515551    -0.02600
C2153       C  0.73734836  0.34817083  0.95019787    -0.09300
C2154       C  0.72867485  0.36001716  0.93868926     0.06900
C2155       C  0.71146928  0.36608717  0.94315212    -0.03000
C2156       C  0.70337957  0.36049199  0.95902715    -0.07500
C2157       C  0.71226918  0.34898133  0.97074386     0.06100
C2158       C  0.72940017  0.34279058  0.96616540    -0.02500
Br2159     Br  0.74222539  0.32650501  0.98102178    -0.02200
H2160       H  0.75045427  0.34317206  0.94679980     0.10000
H2161       H  0.69013220  0.36519948  0.96229394     0.08000
Br2162     Br  0.69815127  0.38120336  0.92753547    -0.02600
C2163       C  0.77862707  0.28959928  0.79519377    -0.09300
C2164       C  0.76815090  0.29285633  0.78009029     0.06900
C2165       C  0.75940354  0.30930380  0.77842726    -0.03000
C2166       C  0.76128429  0.32213307  0.79172784    -0.07500
C2167       C  0.77157381  0.31875482  0.80692152     0.06100
C2168       C  0.78041846  0.30236822  0.80853791    -0.02500
Br2169     Br  0.79606442  0.29723311  0.82803374    -0.02200
H2170       H  0.78568074  0.27712339  0.79644986     0.10000
H2171       H  0.75437181  0.33467944  0.79038032     0.08000
Br2172     Br  0.74447495  0.31487904  0.75860402    -0.02600
C2173       C  0.05435320  0.66682409  0.69336798    -0.09300
C2174       C  0.04892719  0.68458292  0.69479243     0.06900
C2175       C  0.05852519  0.69611698  0.70595134    -0.03000
C2176       C  0.07370202  0.69000355  0.71484603    -0.07500
C2177       C  0.07941470  0.67232043  0.71318217     0.06100
C2178       C  0.06948101  0.66063242  0.70237451    -0.02500
Br2179     Br  0.07655866  0.63654397  0.69822238    -0.02200
H2180       H  0.04693848  0.65781704  0.68492300     0.10000
H2181       H  0.08101385  0.69911555  0.72326448     0.08000
Br2182     Br  0.05096990  0.72004152  0.71018345    -0.02600
C2183       C  0.06950503  0.73466014  0.65492840    -0.09300
C2184       C  0.08333361  0.72297572  0.65049659     0.06900
C2185       C  0.08070042  0.70460874  0.65272030    -0.03000
C2186       C  0.06430516  0.69824684  0.65895154    -0.07500
C2187       C  0.05051359  0.70992983  0.66378129     0.06100
C2188       C  0.05334706  0.72838236  0.66178918    -0.02500
Br2189     Br  0.03628525  0.74583941  0.66933577    -0.02200
H2190       H  0.07150602  0.74882826  0.65359314     0.10000
H2191       H  0.06232188  0.68406569  0.65998848     0.08000
Br2192     Br  0.09878337  0.68760521  0.64682242    -0.02600
C2193       C  0.72704898  0.05315103  0.67849034    -0.09300
C2194       C  0.71090131  0.04826789  0.67048488     0.06900
C2195       C  0.70443985  0.05830828  0.65607081    -0.03000
C2196       C  0.71394936  0.07321089  0.65013963    -0.07500
C2197       C  0.72982064  0.07842678  0.65854873     0.06100
C2198       C  0.73636915  0.06819988  0.67283547    -0.02500
Br2199     Br  0.75834193  0.07378568  0.68466215    -0.02200
H2200       H  0.73244137  0.04519655  0.68920380     0.10000
H2201       H  0.70874087  0.08096525  0.63918791     0.08000
Br2202     Br  0.68295371  0.05185849  0.64387887    -0.02600
C2203       C  0.66481649  0.05744504  0.68819438    -0.09300
C2204       C  0.68009228  0.04946178  0.69543992     0.06900
C2205       C  0.68887264  0.05770645  0.70973091    -0.03000
C2206       C  0.68299592  0.07416144  0.71587772    -0.07500
C2207       C  0.66802813  0.08248056  0.70837359     0.06100
C2208       C  0.65871929  0.07386295  0.69456657    -0.02500
Br2209     Br  0.63842493  0.08443126  0.68324784    -0.02200
H2210       H  0.65779654  0.05102195  0.67738376     0.10000
H2211       H  0.69009219  0.08044223  0.72673114     0.08000
Br2212     Br  0.70854034  0.04667847  0.72172635    -0.02600
C2213       C  0.69746978  0.72649220  0.04013961    -0.09300
C2214       C  0.68586621  0.71391024  0.03284549     0.06900
C2215       C  0.66849644  0.71233439  0.03981772    -0.03000
C2216       C  0.66335166  0.72269361  0.05443573    -0.07500
C2217       C  0.67525766  0.73483797  0.06217994     0.06100
C2218       C  0.69236438  0.73693911  0.05458531    -0.02500
Br2219     Br  0.70887586  0.75491790  0.06207353    -0.02200
H2220       H  0.71041338  0.72864299  0.03415672     0.10000
H2221       H  0.65011258  0.72104156  0.05993827     0.08000
Br2222     Br  0.65141879  0.69623824  0.02982491    -0.02600
C2223       C  0.71942226  0.66590420  0.05810269    -0.09300
C2224       C  0.73416592  0.67577674  0.06399656     0.06900
C2225       C  0.73942118  0.69088518  0.05422746    -0.03000
C2226       C  0.72991615  0.69588619  0.03900851    -0.07500
C2227       C  0.71484495  0.68636520  0.03348139     0.06100
C2228       C  0.70972488  0.67115141  0.04303547    -0.02500
Br2229     Br  0.68968061  0.65713115  0.03582077    -0.02200
H2230       H  0.71520953  0.65428736  0.06545188     0.10000
H2231       H  0.73439429  0.70720288  0.03135208     0.08000
Br2232     Br  0.76005311  0.70461616  0.06043153    -0.02600
C2233       C  0.66940151  0.96437849  0.72104951    -0.09300
C2234       C  0.66455673  0.95086829  0.70921247     0.06900
C2235       C  0.66578855  0.95396342  0.69080776    -0.03000
C2236       C  0.67222842  0.97020811  0.68451208    -0.07500
C2237       C  0.67805350  0.98345232  0.69629657     0.06100
C2238       C  0.67626640  0.98050554  0.71479665    -0.02500
Br2239     Br  0.68434743  0.99727706  0.73224994    -0.02200
H2240       H  0.66867498  0.96204482  0.73523850     0.10000
H2241       H  0.67293588  0.97239976  0.67031275     0.08000
Br2242     Br  0.65867974  0.93642648  0.67375375    -0.02600
C2243       C  0.71309109  0.80281109  0.72701891    -0.09300
C2244       C  0.71151836  0.81720031  0.73866222     0.06900
C2245       C  0.72398387  0.81929631  0.75246470    -0.03000
C2246       C  0.73769465  0.80691898  0.75456365    -0.07500
C2247       C  0.73960083  0.79270121  0.74268651     0.06100
C2248       C  0.72708273  0.79067261  0.72881423    -0.02500
Br2249     Br  0.72813742  0.77141828  0.71219813    -0.02200
H2250       H  0.70342556  0.80105464  0.71645799     0.10000
H2251       H  0.74703096  0.80852126  0.76540978     0.08000
Br2252     Br  0.72269734  0.83874333  0.76883720    -0.02600
C2253       C  0.72881564  0.95744121  0.67513479    -0.09300
C2254       C  0.72666923  0.95253681  0.65721084     0.06900
C2255       C  0.71549269  0.96288705  0.64626598    -0.03000
C2256       C  0.70705416  0.97793253  0.65322374    -0.07500
C2257       C  0.70935089  0.98285669  0.67106552     0.06100
C2258       C  0.72041471  0.97251907  0.68204723    -0.02500
Br2259     Br  0.72528692  0.97901717  0.70620860    -0.02200
H2260       H  0.73741079  0.94972095  0.68374222     0.10000
H2261       H  0.69856248  0.98584073  0.64467972     0.08000
Br2262     Br  0.71030242  0.95660459  0.62211837    -0.02600
C2263       C  0.77491518  0.82545207  0.71076650    -0.09300
C2264       C  0.77223841  0.82113515  0.69283922     0.06900
C2265       C  0.76889198  0.80338437  0.68807841    -0.03000
C2266       C  0.76795481  0.79038744  0.70126594    -0.07500
C2267       C  0.77053978  0.79468726  0.71923650     0.06100
C2268       C  0.77436649  0.81238997  0.72391078    -0.02500
Br2269     Br  0.77994847  0.81935968  0.74781624    -0.02200
H2270       H  0.77771979  0.83903822  0.71452949     0.10000
H2271       H  0.76500358  0.77685700  0.69748108     0.08000
Br2272     Br  0.76429901  0.79628063  0.66402382    -0.02600
C2273       C  0.96306228  0.71801764  0.63878782    -0.09300
C2274       C  0.95295844  0.72842622  0.65054325     0.06900
C2275       C  0.95892682  0.73044232  0.66822423    -0.03000
C2276       C  0.97434181  0.72172550  0.67395493    -0.07500
C2277       C  0.98408475  0.71077157  0.66245271     0.06100
C2278       C  0.97850916  0.70920328  0.64460420    -0.02500
Br2279     Br  0.99120465  0.69476712  0.62786844    -0.02200
H2280       H  0.95867417  0.71636354  0.62517012     0.10000
H2281       H  0.97892490  0.72374915  0.68745093     0.08000
Br2282     Br  0.94726603  0.74582182  0.68490778    -0.02600
C2283       C  0.82206571  0.77345254  0.70240690    -0.09300
C2284       C  0.81850398  0.76061432  0.68944347     0.06900
C2285       C  0.80336625  0.74979177  0.69111161    -0.03000
C2286       C  0.79193006  0.75203426  0.70560864    -0.07500
C2287       C  0.79541394  0.76491139  0.71866761     0.06100
C2288       C  0.81068080  0.77569564  0.71694533    -0.02500
Br2289     Br  0.81680083  0.79363561  0.73383124    -0.02200
H2290       H  0.83375340  0.78180574  0.70116744     0.10000
H2291       H  0.78012071  0.74383257  0.70661398     0.08000
Br2292     Br  0.79788076  0.73181881  0.67394340    -0.02600
C2293       C  0.95900822  0.66229333  0.69359255    -0.09300
C2294       C  0.95301949  0.67034689  0.70932551     0.06900
C2295       C  0.96245057  0.68503661  0.71616213    -0.03000
C2296       C  0.97762405  0.69128433  0.70741623    -0.07500
C2297       C  0.98339486  0.68351388  0.69152829     0.06100
C2298       C  0.97401743  0.66888037  0.68460177    -0.02500
Br2299     Br  0.98140222  0.65748675  0.66305589    -0.02200
H2300       H  0.95175080  0.65116285  0.68806702     0.10000
H2301       H  0.98500300  0.70228731  0.71304936     0.08000
Br2302     Br  0.95558218  0.69675108  0.73774983    -0.02600
C2303       C  0.82401513  0.72701938  0.75322886    -0.09300
C2304       C  0.81940784  0.71112406  0.74470783     0.06900
C2305       C  0.80219876  0.70921326  0.73742839    -0.03000
C2306       C  0.79012748  0.72326309  0.73844555    -0.07500
C2307       C  0.79471316  0.73912306  0.74701828     0.06100
C2308       C  0.81174224  0.74087132  0.75466308    -0.02500
Br2309     Br  0.81882409  0.76161734  0.76748884    -0.02200
H2310       H  0.83713693  0.72855471  0.75905901     0.10000
H2311       H  0.77716231  0.72192479  0.73225419     0.08000
Br2312     Br  0.79474995  0.68829585  0.72495352    -0.02600
C2313       C  0.73773001  0.68214358  0.94664263    -0.09300
C2314       C  0.72700171  0.67286308  0.93455639     0.06900
C2315       C  0.70921548  0.66902487  0.93905310    -0.03000
C2316       C  0.70237233  0.67452702  0.95546504    -0.07500
C2317       C  0.71304754  0.68392251  0.96757679     0.06100
C2318       C  0.73092071  0.68766830  0.96306540    -0.02500
Br2319     Br  0.74621815  0.70126876  0.97832472    -0.02200
H2320       H  0.75136809  0.68535554  0.94315999     0.10000
H2321       H  0.68859714  0.67167339  0.95871207     0.08000
Br2322     Br  0.69371808  0.65673483  0.92295803    -0.02600
C2323       C  0.76834118  0.72858547  0.80329711    -0.09300
C2324       C  0.76047456  0.71250689  0.79808386     0.06900
C2325       C  0.75553508  0.71012059  0.78016980    -0.03000
C2326       C  0.75842981  0.72371494  0.76792910    -0.07500
C2327       C  0.76625722  0.73977563  0.77310850     0.06100
C2328       C  0.77141499  0.74211374  0.79095100    -0.02500
Br2329     Br  0.78286859  0.76331919  0.79911317    -0.02200
H2330       H  0.77237676  0.73052693  0.81698452     0.10000
H2331       H  0.75421241  0.72186091  0.75430620     0.08000
Br2332     Br  0.74358359  0.68922658  0.77180722    -0.02600
C2333       C  0.66296162  0.71729996  0.94450748    -0.09300
C2334       C  0.67531028  0.72755902  0.93492511     0.06900
C2335       C  0.69246975  0.73031289  0.94215291    -0.03000
C2336       C  0.69718603  0.72227086  0.95819071    -0.07500
C2337       C  0.68508796  0.71153392  0.96741611     0.06100
C2338       C  0.66772985  0.70929321  0.96064506    -0.02500
Br2339     Br  0.65042228  0.69486473  0.97259311    -0.02200
H2340       H  0.64970291  0.71514693  0.93921614     0.10000
H2341       H  0.71038794  0.72450205  0.96360119     0.08000
Br2342     Br  0.70968737  0.74591494  0.93159823    -0.02600
C2343       C  0.71143610  0.75437068  0.78261493    -0.09300
C2344       C  0.71332221  0.76387066  0.79850040     0.06900
C2345       C  0.72794556  0.77533356  0.80067746    -0.03000
C2346       C  0.74067166  0.77682434  0.78718778    -0.07500
C2347       C  0.73920258  0.76682431  0.77153780     0.06100
C2348       C  0.72428598  0.75568415  0.76920053    -0.02500
Br2349     Br  0.72092628  0.74180858  0.74815160    -0.02200
H2350       H  0.70006795  0.74570059  0.78076238     0.10000
H2351       H  0.75193669  0.78560568  0.78903739     0.08000
Br2352     Br  0.73087841  0.78939451  0.82171250    -0.02600
C2353       C  0.55785590  0.86074829  0.80868964    -0.09300
C2354       C  0.55045871  0.84396449  0.80554256     0.06900
C2355       C  0.55842486  0.83273439  0.79294093    -0.03000
C2356       C  0.57351557  0.83838747  0.78364896    -0.07500
C2357       C  0.58102205  0.85522382  0.78666197     0.06100
C2358       C  0.57317970  0.86634477  0.79962864    -0.02500
Br2359     Br  0.58335016  0.88859830  0.80671313    -0.02200
H2360       H  0.55181762  0.86941161  0.81847373     0.10000
H2361       H  0.57921124  0.82962889  0.77375893     0.08000
Br2362     Br  0.54871298  0.80985240  0.78744195    -0.02600
C2363       C  0.56461405  0.82848518  0.84095749    -0.09300
C2364       C  0.55010425  0.81783324  0.83580625     0.06900
C2365       C  0.55192622  0.79914928  0.83691253    -0.03000
C2366       C  0.56793655  0.79166929  0.84287559    -0.07500
C2367       C  0.58252865  0.80237236  0.84725096     0.06100
C2368       C  0.58083827  0.82091262  0.84619187    -0.02500
Br2369     Br  0.60040262  0.83637004  0.85162306    -0.02200
H2370       H  0.56343588  0.84278063  0.84066915     0.10000
H2371       H  0.56927581  0.77736774  0.84333347     0.08000
Br2372     Br  0.53378346  0.78293175  0.82907069    -0.02600
C2373       C  0.47808580  0.80395407  0.82286927    -0.09300
C2374       C  0.48416435  0.81792532  0.83351915     0.06900
C2375       C  0.47513589  0.82188438  0.84941951    -0.03000
C2376       C  0.45985402  0.81223515  0.85413141    -0.07500
C2377       C  0.45343378  0.79856202  0.84316540     0.06100
C2378       C  0.46290931  0.79428796  0.82751216    -0.02500
Br2379     Br  0.45671205  0.77457273  0.81256949    -0.02200
H2380       H  0.48541755  0.80032974  0.81100843     0.10000
H2381       H  0.45279577  0.81562557  0.86622067     0.08000
Br2382     Br  0.48321500  0.84035269  0.86495104    -0.02600
C2383       C  0.47918769  0.83483820  0.78999127    -0.09300
C2384       C  0.48489307  0.84493020  0.80453485     0.06900
C2385       C  0.47590653  0.86080791  0.80862259    -0.03000
C2386       C  0.46121680  0.86619370  0.79836109    -0.07500
C2387       C  0.45523375  0.85588155  0.78398392     0.06100
C2388       C  0.46451790  0.84009087  0.77978167    -0.02500
Br2389     Br  0.45879587  0.82573695  0.75948056    -0.02200
H2390       H  0.48641331  0.82293407  0.78636243     0.10000
H2391       H  0.45429117  0.87832712  0.80178587     0.08000
Br2392     Br  0.48343424  0.87555253  0.82796318    -0.02600
C2393       C  0.82245309  0.56063682  0.84468436    -0.09300
C2394       C  0.81579998  0.55033031  0.83066337     0.06900
C2395       C  0.79956464  0.55509043  0.82257936    -0.03000
C2396       C  0.79063449  0.57040910  0.82805218    -0.07500
C2397       C  0.79725419  0.58080463  0.84204294     0.06100
C2398       C  0.81321552  0.57570781  0.85054425    -0.02500
Br2399     Br  0.82338703  0.58926859  0.86957227    -0.02200
H2400       H  0.83478435  0.55685640  0.85116221     0.10000
H2401       H  0.77833322  0.57413066  0.82147935     0.08000
Br2402     Br  0.78890784  0.54087717  0.80426892    -0.02600
C2403       C  0.83502192  0.55646825  0.78940419    -0.09300
C2404       C  0.84523226  0.55011742  0.80362196     0.06900
C2405       C  0.86187549  0.55802578  0.80716879    -0.03000
C2406       C  0.86789137  0.57226846  0.79671832    -0.07500
C2407       C  0.85748362  0.57886007  0.78265140     0.06100
C2408       C  0.84091903  0.57065901  0.77898143    -0.02500
Br2409     Br  0.82630167  0.57714663  0.75904500    -0.02200
H2410       H  0.82262172  0.54996600  0.78601222     0.10000
H2411       H  0.88058131  0.57840358  0.79979116     0.08000
Br2412     Br  0.87668843  0.54978350  0.82621142    -0.02600
C2413       C  0.85254851  0.47092657  0.81549057    -0.09300
C2414       C  0.84563025  0.48467578  0.80494976     0.06900
C2415       C  0.84503139  0.48240783  0.78628175    -0.03000
C2416       C  0.85157140  0.46682231  0.77860282    -0.07500
C2417       C  0.85818167  0.45307305  0.78921053     0.06100
C2418       C  0.85841628  0.45507090  0.80779544    -0.02500
Br2419     Br  0.86684174  0.43657226  0.82313605    -0.02200
H2420       H  0.85342239  0.47251087  0.82975608     0.10000
H2421       H  0.85094636  0.46517649  0.76430897     0.08000
Br2422     Br  0.83439660  0.49954448  0.77060473    -0.02600
C2423       C  0.82256281  0.47814046  0.84999664    -0.09300
C2424       C  0.81738706  0.48504981  0.83343860     0.06900
C2425       C  0.80372261  0.47658673  0.82386857    -0.03000
C2426       C  0.79589101  0.46114611  0.83056692    -0.07500
C2427       C  0.80120738  0.45398015  0.84697304     0.06100
C2428       C  0.81468588  0.46264895  0.85675726    -0.02500
Br2429     Br  0.82377155  0.45320146  0.87862008    -0.02200
H2430       H  0.83301254  0.48464268  0.85750807     0.10000
H2431       H  0.78552341  0.45468908  0.82290263     0.08000
Br2432     Br  0.79502573  0.48590325  0.80180123    -0.02600
C2433       C  0.84039490  0.55395863  0.21612377    -0.09300
C2434       C  0.84709672  0.55128045  0.19893278     0.06900
C2435       C  0.85881299  0.56391049  0.19160353    -0.03000
C2436       C  0.86357482  0.57895146  0.20149699    -0.07500
C2437       C  0.85669265  0.58168345  0.21863420     0.06100
C2438       C  0.84501780  0.56899317  0.22594236    -0.02500
Br2439     Br  0.83598195  0.57084892  0.24972701    -0.02200
H2440       H  0.83166096  0.54413849  0.22201740     0.10000
H2441       H  0.87257729  0.58860969  0.19574969     0.08000
Br2442     Br  0.86924134  0.56080790  0.16857676    -0.02600
C2443       C  0.80949475  0.55820252  0.18040766    -0.09300
C2444       C  0.82104896  0.54944381  0.16871666     0.06900
C2445       C  0.82241371  0.55560594  0.15105569    -0.03000
C2446       C  0.81318657  0.57097735  0.14579532    -0.07500
C2447       C  0.80226025  0.58025352  0.15781657     0.06100
C2448       C  0.80002553  0.57327465  0.17513307    -0.02500
Br2449     Br  0.78316389  0.58261913  0.19189995    -0.02200
H2450       H  0.80758707  0.55306901  0.19371895     0.10000
H2451       H  0.81489272  0.57591463  0.13238798     0.08000
Br2452     Br  0.83704945  0.54379774  0.13381800    -0.02600
C2453       C  0.81223896  0.47498150  0.18031824    -0.09300
C2454       C  0.82514073  0.48375450  0.17009041     0.06900
C2455       C  0.83036750  0.47641206  0.15369147    -0.03000
C2456       C  0.82272069  0.46049911  0.14777185    -0.07500
C2457       C  0.80993276  0.45163930  0.15808051     0.06100
C2458       C  0.80465542  0.45904699  0.17446600    -0.02500
Br2459     Br  0.78644849  0.44841875  0.18886113    -0.02200
H2460       H  0.80789625  0.48067982  0.19280332     0.10000
H2461       H  0.82705579  0.45482140  0.13527450     0.08000
Br2462     Br  0.84831693  0.48740822  0.13929909    -0.02600
C2463       C  0.86280979  0.47484708  0.19390112    -0.09300
C2464       C  0.84982073  0.48612557  0.20111812     0.06900
C2465       C  0.84295329  0.48247736  0.21816850    -0.03000
C2466       C  0.84858980  0.46737511  0.22740200    -0.07500
C2467       C  0.86155012  0.45606667  0.22020733     0.06100
C2468       C  0.86885888  0.46001170  0.20340091    -0.02500
Br2469     Br  0.88652655  0.44515225  0.19256009    -0.02200
H2470       H  0.86831595  0.47765873  0.18089651     0.10000
H2471       H  0.84289058  0.46447995  0.24030886     0.08000
Br2472     Br  0.82568238  0.49763803  0.22928586    -0.02600
C2473       C  0.56243671  0.84029356  0.15088464    -0.09300
C2474       C  0.54962452  0.82921896  0.15880227     0.06900
C2475       C  0.55324326  0.81089969  0.16029777    -0.03000
C2476       C  0.56932729  0.80402017  0.15390261    -0.07500
C2477       C  0.58219201  0.81513529  0.14632725     0.06100
C2478       C  0.57872081  0.83341830  0.14487766    -0.02500
Br2479     Br  0.59596096  0.84944770  0.13508783    -0.02200
H2480       H  0.55987155  0.85436875  0.14962037     0.10000
H2481       H  0.57210952  0.79000581  0.15547529     0.08000
Br2482     Br  0.53744234  0.79487454  0.17232005    -0.02600
C2483       C  0.57198694  0.87814614  0.19548550    -0.09300
C2484       C  0.58060208  0.86637553  0.20712679     0.06900
C2485       C  0.57353212  0.84915580  0.20944047    -0.03000
C2486       C  0.55836274  0.84394883  0.19999349    -0.07500
C2487       C  0.54987940  0.85563643  0.18827044     0.06100
C2488       C  0.55674561  0.87287550  0.18605046    -0.02500
Br2489     Br  0.54601756  0.88935150  0.16985260    -0.02200
H2490       H  0.57733393  0.89133383  0.19344905     0.10000
H2491       H  0.55290483  0.83080682  0.20207813     0.08000
Br2492     Br  0.58310848  0.83256001  0.22628669    -0.02600
C2493       C  0.45875175  0.87371207  0.19543552    -0.09300
C2494       C  0.45457033  0.86504377  0.21143070     0.06900
C2495       C  0.46581609  0.85128199  0.21746966    -0.03000
C2496       C  0.48064677  0.84623786  0.20741518    -0.07500
C2497       C  0.48438284  0.85438456  0.19110255     0.06100
C2498       C  0.47350034  0.86841666  0.18524424    -0.02500
Br2499     Br  0.47853612  0.88077676  0.16356997    -0.02200
H2500       H  0.45027682  0.88431162  0.19063405     0.10000
H2501       H  0.48933026  0.83585076  0.21233148     0.08000
Br2502     Br  0.46213011  0.83945824  0.23976304    -0.02600
C2503       C  0.47485538  0.81609888  0.17466481    -0.09300
C2504       C  0.48345265  0.82687991  0.16215552     0.06900
C2505       C  0.47664041  0.82757286  0.14468559    -0.03000
C2506       C  0.46114044  0.81809671  0.14024505    -0.07500
C2507       C  0.45210670  0.80788759  0.15300815     0.06100
C2508       C  0.45933440  0.80676312  0.17035090    -0.02500
Br2509     Br  0.44955075  0.79180292  0.18856045    -0.02200
H2510       H  0.48045969  0.81464052  0.18784228     0.10000
H2511       H  0.45586517  0.81909994  0.12687923     0.08000
Br2512     Br  0.48770559  0.84168266  0.12658356    -0.02600
C2513       C  0.17212309  0.55923195  0.81188846    -0.09300
C2514       C  0.18368628  0.54826808  0.80217549     0.06900
C2515       C  0.18807957  0.55288863  0.78456941    -0.03000
C2516       C  0.18158191  0.56866393  0.77724672    -0.07500
C2517       C  0.17026720  0.57976909  0.78703721     0.06100
C2518       C  0.16536837  0.57488884  0.80441698    -0.02500
Br2519     Br  0.15025329  0.58965583  0.81866062    -0.02200
H2520       H  0.16846471  0.55567044  0.82534340     0.10000
H2521       H  0.18547046  0.57235438  0.76388229     0.08000
Br2522     Br  0.20307955  0.53819276  0.77008312    -0.02600
C2523       C  0.23697344  0.57187476  0.82646649    -0.09300
C2524       C  0.22942638  0.58135821  0.84067592     0.06900
C2525       C  0.21359641  0.57494974  0.84850810    -0.03000
C2526       C  0.20585444  0.55918640  0.84227645    -0.07500
C2527       C  0.21358124  0.54967987  0.82821599     0.06100
C2528       C  0.22929743  0.55612198  0.82033382    -0.02500
Br2529     Br  0.24085560  0.54378234  0.80126036    -0.02200
H2530       H  0.24906504  0.57664371  0.82021006     0.10000
H2531       H  0.19375157  0.55431525  0.84842263     0.08000
Br2532     Br  0.20134064  0.58772807  0.86683265    -0.02600
C2533       C  0.23938707  0.46172149  0.82450992    -0.09300
C2534       C  0.23498298  0.45376577  0.84082162     0.06900
C2535       C  0.22092441  0.46104983  0.85095300    -0.03000
C2536       C  0.21174884  0.47604705  0.84475370    -0.07500
C2537       C  0.21629816  0.48398821  0.82852718     0.06100
C2538       C  0.23034780  0.47679525  0.81844480    -0.02500
Br2539     Br  0.23803927  0.48742635  0.79659261    -0.02200
H2540       H  0.25012953  0.45633388  0.81654251     0.10000
H2541       H  0.20097795  0.48152919  0.85261201     0.08000
Br2542     Br  0.21282690  0.45046241  0.87266384    -0.02600
C2543       C  0.19181692  0.47633138  0.78789662    -0.09300
C2544       C  0.18509865  0.48267178  0.80404147     0.06900
C2545       C  0.17136632  0.47328363  0.81263392    -0.03000
C2546       C  0.16478826  0.45755528  0.80514967    -0.07500
C2547       C  0.17195041  0.45089071  0.78925932     0.06100
C2548       C  0.18555667  0.46048350  0.78058410    -0.02500
Br2549     Br  0.19551546  0.45309121  0.75828067    -0.02200
H2550       H  0.20191758  0.48381609  0.78088243     0.10000
H2551       H  0.15435606  0.45030636  0.81195102     0.08000
Br2552     Br  0.16125800  0.48154793  0.83451211    -0.02600
C2553       C  0.55758705  0.21048047  0.84683379    -0.09300
C2554       C  0.54996586  0.21685798  0.83104743     0.06900
C2555       C  0.55750925  0.23171793  0.82264038    -0.03000
C2556       C  0.57274063  0.23967212  0.82978935    -0.07500
C2557       C  0.58051819  0.23325117  0.84550830     0.06100
C2558       C  0.57283660  0.21847097  0.85404244    -0.02500
Br2559     Br  0.58335669  0.20785726  0.87469063    -0.02200
H2560       H  0.55176599  0.19910390  0.85343451     0.10000
H2561       H  0.57851486  0.25100656  0.82307002     0.08000
Br2562     Br  0.54719741  0.24185997  0.80164766    -0.02600
C2563       C  0.56334743  0.17991548  0.81321876    -0.09300
C2564       C  0.55102050  0.18905102  0.80256077     0.06900
C2565       C  0.55472891  0.19121874  0.78428228    -0.03000
C2566       C  0.57037266  0.18411938  0.77699735    -0.07500
C2567       C  0.58268278  0.17509215  0.78770114     0.06100
C2568       C  0.57915610  0.17314354  0.80598218    -0.02500
Br2569     Br  0.59523178  0.16073011  0.82142917    -0.02200
H2570       H  0.56055995  0.17782591  0.82717691     0.10000
H2571       H  0.57312938  0.18598593  0.76298877     0.08000
Br2572     Br  0.53923628  0.20436871  0.76881941    -0.02600
C2573       C  0.47970154  0.17054481  0.80364879    -0.09300
C2574       C  0.48499046  0.18825585  0.80130616     0.06900
C2575       C  0.47551900  0.19896781  0.78927677    -0.03000
C2576       C  0.46045738  0.19225635  0.78064799    -0.07500
C2577       C  0.45469539  0.17470768  0.78337655     0.06100
C2578       C  0.46462381  0.16373801  0.79495717    -0.02500
Br2579     Br  0.45777450  0.13986390  0.80049449    -0.02200
H2580       H  0.48723201  0.16203355  0.81249750     0.10000
H2581       H  0.45335071  0.20079135  0.77148599     0.08000
Br2582     Br  0.48338414  0.22237868  0.78311344    -0.02600
C2583       C  0.48082132  0.23384914  0.82771625    -0.09300
C2584       C  0.48411953  0.21576150  0.83078425     0.06900
C2585       C  0.47216913  0.20614754  0.84158866    -0.03000
C2586       C  0.45704489  0.21454954  0.84867602    -0.07500
C2587       C  0.45364652  0.23252937  0.84526261     0.06100
C2588       C  0.46564865  0.24216360  0.83463114    -0.02500
Br2589     Br  0.46183531  0.26673894  0.82924874    -0.02200
H2590       H  0.49008689  0.24152939  0.81979694     0.10000
H2591       H  0.44781188  0.20698332  0.85673664     0.08000
Br2592     Br  0.47639809  0.18188430  0.84788079    -0.02600
C2593       C  0.86856381  0.83680545  0.54143678    -0.09300
C2594       C  0.85388229  0.83057245  0.53165344     0.06900
C2595       C  0.84511332  0.81507055  0.53735316    -0.03000
C2596       C  0.85059297  0.80647406  0.55288027    -0.07500
C2597       C  0.86527765  0.81257587  0.56268843     0.06100
C2598       C  0.87442095  0.82782667  0.55676276    -0.02500
Br2599     Br  0.89443462  0.83726768  0.56948766    -0.02200
H2600       H  0.87557470  0.84857275  0.53704113     0.10000
H2601       H  0.84350569  0.79470670  0.55716476     0.08000
Br2602     Br  0.82588865  0.80473006  0.52412474    -0.02600
C2603       C  0.81356263  0.84993452  0.53855737    -0.09300
C2604       C  0.82725745  0.86009692  0.53106787     0.06900
C2605       C  0.83179462  0.87641223  0.53901412    -0.03000
C2606       C  0.82314889  0.88189866  0.55466271    -0.07500
C2607       C  0.81005597  0.87120345  0.56262778     0.06100
C2608       C  0.80512863  0.85519758  0.55424855    -0.02500
Br2609     Br  0.78648446  0.84024602  0.56324887    -0.02200
H2610       H  0.80930671  0.83785533  0.53210505     0.10000
H2611       H  0.82705169  0.89424125  0.56091751     0.08000
Br2612     Br  0.84995260  0.89131407  0.52912366    -0.02600
C2613       C  0.81221127  0.84856644  0.45955671    -0.09300
C2614       C  0.82704491  0.85829734  0.46526302     0.06900
C2615       C  0.83233196  0.87332001  0.45547992    -0.03000
C2616       C  0.82306239  0.87807070  0.43993640    -0.07500
C2617       C  0.80850948  0.86795210  0.43390899     0.06100
C2618       C  0.80298861  0.85318917  0.44407935    -0.02500
Br2619     Br  0.78215468  0.83953623  0.43834837    -0.02200
H2620       H  0.80757951  0.83743987  0.46737543     0.10000
H2621       H  0.82742611  0.88949602  0.43237751     0.08000
Br2622     Br  0.85208322  0.88761398  0.46295648    -0.02600
C2623       C  0.86869584  0.83603243  0.45584152    -0.09300
C2624       C  0.85431187  0.82959886  0.46588962     0.06900
C2625       C  0.84569742  0.81393490  0.46042711    -0.03000
C2626       C  0.85096917  0.80540770  0.44477823    -0.07500
C2627       C  0.86524295  0.81183741  0.43458121     0.06100
C2628       C  0.87431129  0.82719433  0.44036710    -0.02500
Br2629     Br  0.89369674  0.83718098  0.42712721    -0.02200
H2630       H  0.87553918  0.84797243  0.46003276     0.10000
H2631       H  0.84392125  0.79358256  0.44058436     0.08000
Br2632     Br  0.82671252  0.80358639  0.47396269    -0.02600
C2633       C  0.80459637  0.19194274  0.54005148    -0.09300
C2634       C  0.81951242  0.18293891  0.53337112     0.06900
C2635       C  0.82537886  0.16746880  0.54211058    -0.03000
C2636       C  0.81657540  0.16148952  0.55750231    -0.07500
C2637       C  0.80197428  0.17086020  0.56450695     0.06100
C2638       C  0.79591815  0.18613107  0.55548101    -0.02500
Br2639     Br  0.77532229  0.19912031  0.56320442    -0.02200
H2640       H  0.79961345  0.20353445  0.53317134     0.10000
H2641       H  0.82145173  0.14978574  0.56428779     0.08000
Br2642     Br  0.84555726  0.15439124  0.53360668    -0.02600
C2643       C  0.86201725  0.20398613  0.54293051    -0.09300
C2644       C  0.84713851  0.21137317  0.53440970     0.06900
C2645       C  0.83915958  0.22672536  0.54146630    -0.03000
C2646       C  0.84580939  0.23414906  0.55715280    -0.07500
C2647       C  0.86076070  0.22683313  0.56564653     0.06100
C2648       C  0.86892598  0.21166468  0.55841292    -0.02500
Br2649     Br  0.88901489  0.20059973  0.56959509    -0.02200
H2650       H  0.86834525  0.19229690  0.53742930     0.10000
H2651       H  0.83940462  0.24579835  0.56266173     0.08000
Br2652     Br  0.81948173  0.23821124  0.52992159    -0.02600
C2653       C  0.86506022  0.20801560  0.46106725    -0.09300
C2654       C  0.84877578  0.21313840  0.46871274     0.06900
C2655       C  0.83940122  0.22751237  0.46128614    -0.03000
C2656       C  0.84579335  0.23583526  0.44592564    -0.07500
C2657       C  0.86193394  0.23060726  0.43802762     0.06100
C2658       C  0.87175847  0.21669670  0.44593259    -0.02500
Br2659     Br  0.89382023  0.20835997  0.43613665    -0.02200
H2660       H  0.87257669  0.19721149  0.46689380     0.10000
H2661       H  0.83819314  0.24665247  0.44022521     0.08000
Br2662     Br  0.81817020  0.23672816  0.47207078    -0.02600
C2663       C  0.80641525  0.19169330  0.46118185    -0.09300
C2664       C  0.82209025  0.18376378  0.46741817     0.06900
C2665       C  0.82968530  0.16965396  0.45777226    -0.03000
C2666       C  0.82161452  0.16385025  0.44196133    -0.07500
C2667       C  0.80620304  0.17222227  0.43545465     0.06100
C2668       C  0.79862989  0.18626813  0.44522323    -0.02500
Br2669     Br  0.77732950  0.19817200  0.43766091    -0.02200
H2670       H  0.80017273  0.20216744  0.46879495     0.10000
H2671       H  0.82761807  0.15310582  0.43451102     0.08000
Br2672     Br  0.85101990  0.15809885  0.46571834    -0.02600
C2673       C  0.20357155  0.87062742  0.53934465    -0.09300
C2674       C  0.20719090  0.85398706  0.53179520     0.06900
C2675       C  0.22069728  0.84337872  0.53915650    -0.03000
C2676       C  0.22990215  0.84916091  0.55419383    -0.07500
C2677       C  0.22616146  0.86565695  0.56207285     0.06100
C2678       C  0.21286907  0.87651774  0.55442125    -0.02500
Br2679     Br  0.20602260  0.89890042  0.56441483    -0.02200
H2680       H  0.19338333  0.87900105  0.53353076     0.10000
H2681       H  0.24024678  0.84073829  0.55964606     0.08000
Br2682     Br  0.22772043  0.82130743  0.52860853    -0.02600
C2683       C  0.17106326  0.83679322  0.54531978    -0.09300
C2684       C  0.17802673  0.82647886  0.53139720     0.06900
C2685       C  0.17847218  0.80781223  0.53335759    -0.03000
C2686       C  0.17204404  0.79994270  0.54893318    -0.07500
C2687       C  0.16543929  0.81031759  0.56288124     0.06100
C2688       C  0.16504711  0.82887649  0.56105501    -0.02500
Br2689     Br  0.15652203  0.84387399  0.57978781    -0.02200
H2690       H  0.17037119  0.85107409  0.54398836     0.10000
H2691       H  0.17281841  0.78567110  0.55044275     0.08000
Br2692     Br  0.18888155  0.79236992  0.51588929    -0.02600
C2693       C  0.16141774  0.83141416  0.45898018    -0.09300
C2694       C  0.17858466  0.82803314  0.46560239     0.06900
C2695       C  0.18949377  0.81569008  0.45675453    -0.03000
C2696       C  0.18363575  0.80785578  0.44097413    -0.07500
C2697       C  0.16667249  0.81158224  0.43394822     0.06100
C2698       C  0.15538978  0.82333826  0.44328028    -0.02500
Br2699     Br  0.13213477  0.82972974  0.43483870    -0.02200
H2700       H  0.15273596  0.84052538  0.46597981     0.10000
H2701       H  0.19231790  0.79849628  0.43431243     0.08000
Br2702     Br  0.21193972  0.80806418  0.46631984    -0.02600
C2703       C  0.22484668  0.85143457  0.46389234    -0.09300
C2704       C  0.20695331  0.85614879  0.46657480     0.06900
C2705       C  0.19847871  0.86734099  0.45418459    -0.03000
C2706       C  0.20766577  0.87281645  0.43890791    -0.07500
C2707       C  0.22526548  0.86729445  0.43585541     0.06100
C2708       C  0.23393464  0.85671295  0.44859924    -0.02500
Br2709     Br  0.25825041  0.84931087  0.44579411    -0.02200
H2710       H  0.23168945  0.84332767  0.47363457     0.10000
H2711       H  0.20095266  0.88109273  0.42922475     0.08000
Br2712     Br  0.17477883  0.87606614  0.45796029    -0.02600
C2713       C  0.55530148  0.19248093  0.20930831    -0.09300
C2714       C  0.54874483  0.18235135  0.19513944     0.06900
C2715       C  0.55760687  0.16666610  0.19023850    -0.03000
C2716       C  0.57332440  0.16174624  0.19902727    -0.07500
C2717       C  0.58045253  0.17247570  0.21252418     0.06100
C2718       C  0.57116000  0.18784271  0.21782753    -0.02500
Br2719     Br  0.57916669  0.20268751  0.23697145    -0.02200
H2720       H  0.54814154  0.20419305  0.21361147     0.10000
H2721       H  0.58030926  0.14986032  0.19491607     0.08000
Br2722     Br  0.54888973  0.15193669  0.17138441    -0.02600
C2723       C  0.55919432  0.22240532  0.17869778    -0.09300
C2724       C  0.55044008  0.21035649  0.16750704     0.06900
C2725       C  0.55790844  0.20642506  0.15080167    -0.03000
C2726       C  0.57414971  0.21413755  0.14575043    -0.07500
C2727       C  0.58326782  0.22568520  0.15724009     0.06100
C2728       C  0.57554161  0.22991492  0.17381928    -0.02500
Br2729     Br  0.58599049  0.24678829  0.18983712    -0.02200
H2730       H  0.55319263  0.22614269  0.19122818     0.10000
H2731       H  0.57980488  0.21091280  0.13290498     0.08000
Br2732     Br  0.54635235  0.19055753  0.13454709    -0.02600
C2733       C  0.47802982  0.21039448  0.14884241    -0.09300
C2734       C  0.48461641  0.21230839  0.16619413     0.06900
C2735       C  0.47643863  0.22444240  0.17776957    -0.03000
C2736       C  0.46149469  0.23392100  0.17220098    -0.07500
C2737       C  0.45453389  0.23184780  0.15498992     0.06100
C2738       C  0.46305304  0.22000852  0.14315704    -0.02500
Br2739     Br  0.45435595  0.21548903  0.11961348    -0.02200
H2740       H  0.48446042  0.20124690  0.13977696     0.10000
H2741       H  0.45538785  0.24316923  0.18138202     0.08000
Br2742     Br  0.48573025  0.22924805  0.20101933    -0.02600
C2743       C  0.47027581  0.17421829  0.17797122    -0.09300
C2744       C  0.48272969  0.18067783  0.19037149     0.06900
C2745       C  0.47853419  0.17966842  0.20868002    -0.03000
C2746       C  0.46214199  0.17266460  0.21413976    -0.07500
C2747       C  0.44962975  0.16662829  0.20172362     0.06100
C2748       C  0.45379843  0.16736488  0.18350641    -0.02500
Br2749     Br  0.43736876  0.15915966  0.16579600    -0.02200
H2750       H  0.47335866  0.17454955  0.16391705     0.10000
H2751       H  0.45890039  0.17243449  0.22816968     0.08000
Br2752     Br  0.49403850  0.18862454  0.22691737    -0.02600
C2753       C  0.23016328  0.55292431  0.17033480    -0.09300
C2754       C  0.21209903  0.55069074  0.16596783     0.06900
C2755       C  0.20385658  0.56316633  0.15470564    -0.03000
C2756       C  0.21341926  0.57807716  0.14885249    -0.07500
C2757       C  0.23122244  0.58071459  0.15401834     0.06100
C2758       C  0.23968614  0.56778484  0.16456366    -0.02500
Br2759     Br  0.26446290  0.56940656  0.17074584    -0.02200
H2760       H  0.23689364  0.54303104  0.17833859     0.10000
H2761       H  0.20683762  0.58780817  0.14053699     0.08000
Br2762     Br  0.17994926  0.55994260  0.14633524    -0.02600
C2763       C  0.18940715  0.57468727  0.21637691    -0.09300
C2764       C  0.17244826  0.58183337  0.21295461     0.06900
C2765       C  0.16125973  0.57329275  0.20054599    -0.03000
C2766       C  0.16725070  0.55803518  0.19170867    -0.07500
C2767       C  0.18432361  0.55113045  0.19497091     0.06100
C2768       C  0.19525237  0.55933173  0.20775068    -0.02500
Br2769     Br  0.21773911  0.54938992  0.21472955    -0.02200
H2770       H  0.19805930  0.58092439  0.22607101     0.10000
H2771       H  0.15859154  0.55156548  0.18217807     0.08000
Br2772     Br  0.13821305  0.58242822  0.19435723    -0.02600
C2773       C  0.16654997  0.47930838  0.19315174    -0.09300
C2774       C  0.18401815  0.48558910  0.19553779     0.06900
C2775       C  0.19546426  0.47641488  0.20716298    -0.03000
C2776       C  0.18973680  0.46079712  0.21540268    -0.07500
C2777       C  0.17239388  0.45420735  0.21281786     0.06100
C2778       C  0.16064578  0.46379869  0.20168357    -0.02500
Br2779     Br  0.13683150  0.45596618  0.19670299    -0.02200
H2780       H  0.15753358  0.48640827  0.18443438     0.10000
H2781       H  0.19884778  0.45393172  0.22420792     0.08000
Br2782     Br  0.21864068  0.48527653  0.21318002    -0.02600
C2783       C  0.19953477  0.47210150  0.15861284    -0.09300
C2784       C  0.21072022  0.48530706  0.16562229     0.06900
C2785       C  0.22939736  0.48260665  0.16540723    -0.03000
C2786       C  0.23640237  0.46680304  0.15869285    -0.07500
C2787       C  0.22516685  0.45348812  0.15221417     0.06100
C2788       C  0.20662262  0.45623596  0.15203365    -0.02500
Br2789     Br  0.19057969  0.43876220  0.14271543    -0.02200
H2790       H  0.18524493  0.47413892  0.15825713     0.10000
H2791       H  0.25067697  0.46461700  0.15912763     0.08000
Br2792     Br  0.24607181  0.49939450  0.17508999    -0.02600
C2793       C  0.19496458  0.23021583  0.54232740    -0.09300
C2794       C  0.18597084  0.21519027  0.53606139     0.06900
C2795       C  0.17016851  0.20976848  0.54457984    -0.03000
C2796       C  0.16373847  0.21923529  0.55931960    -0.07500
C2797       C  0.17296599  0.23408747  0.56581883     0.06100
C2798       C  0.18868546  0.23959912  0.55708783    -0.02500
Br2799     Br  0.20153881  0.26051847  0.56400102    -0.02200
H2800       H  0.20672160  0.23491607  0.53544887     0.10000
H2801       H  0.15173858  0.21476075  0.56595091     0.08000
Br2802     Br  0.15710556  0.18946484  0.53650364    -0.02600
C2803       C  0.21012278  0.17415034  0.54501350    -0.09300
C2804       C  0.21604888  0.18888700  0.53532869     0.06900
C2805       C  0.23207799  0.19726258  0.54025308    -0.03000
C2806       C  0.24172812  0.19106448  0.55490393    -0.07500
C2807       C  0.23598574  0.17615811  0.56451301     0.06100
C2808       C  0.21997192  0.16769732  0.55947989    -0.02500
Br2809     Br  0.21041869  0.14794286  0.57238251    -0.02200
H2810       H  0.19789192  0.16753544  0.54117288     0.10000
H2811       H  0.25395876  0.19774515  0.55864115     0.08000
Br2812     Br  0.24156393  0.21685615  0.52700493    -0.02600
C2813       C  0.22414588  0.19926139  0.46032332    -0.09300
C2814       C  0.21345351  0.18740538  0.46983505     0.06900
C2815       C  0.21202995  0.16973056  0.46390006    -0.03000
C2816       C  0.22089510  0.16433598  0.44837579    -0.07500
C2817       C  0.23145181  0.17628624  0.43862963     0.06100
C2818       C  0.23328170  0.19387834  0.44504806    -0.02500
Br2819     Br  0.24934663  0.21091668  0.43489117    -0.02200
H2820       H  0.22580566  0.21270724  0.46514107     0.10000
H2821       H  0.21931287  0.15081615  0.44377856     0.08000
Br2822     Br  0.19781675  0.15265915  0.47639230    -0.02600
C2823       C  0.17933741  0.24095443  0.45181298    -0.09300
C2824       C  0.17188085  0.23027650  0.43851249     0.06900
C2825       C  0.17062059  0.21184292  0.44125628    -0.03000
C2826       C  0.17676998  0.20436113  0.45715146    -0.07500
C2827       C  0.18460899  0.21496728  0.47034611     0.06100
C2828       C  0.18590125  0.23345694  0.46753140    -0.02500
Br2829     Br  0.19776976  0.24891551  0.48403345    -0.02200
H2830       H  0.18070983  0.25509427  0.44965588     0.10000
H2831       H  0.17555168  0.19019172  0.45917320     0.08000
Br2832     Br  0.16031470  0.19642489  0.42378358    -0.02600
loop_ 
_geom_bond_atom_site_label_1 
_geom_bond_atom_site_label_2 
_geom_bond_distance 
_geom_bond_site_symmetry_2 
_ccdc_geom_bond_type 
C1            C2   1.417       .  A
C1            C6   1.406       .  A
C1         C2827   1.488       .  S
C2            C3   1.403       .  A
C2         C2814   1.486       .  S
C3            C4   1.403       .  A
C3            H8   1.085       .  S
C4            C5   1.413       .  A
C4         C2804   1.479       .  S
C5            C6   1.402       .  A
C5         C2794   1.483       .  S
C6            H7   1.084       .  S
C9           C10   1.419       .  A
C9           C14   1.404       .  A
C9         C2774   1.489       .  S
C10          C11   1.404       .  A
C10        C2784   1.486       .  S
C11          C12   1.400       .  A
C11          H16   1.084       .  S
C12          C13   1.417       .  A
C12        C2754   1.487       .  S
C13          C14   1.406       .  A
C13        C2767   1.481       .  S
C14          H15   1.084       .  S
C17          C18   1.419       .  A
C17          C22   1.404       .  A
C17        C2734   1.478       .  S
C18          C19   1.405       .  A
C18        C2744   1.494       .  S
C19          C20   1.402       .  A
C19          H24   1.084       .  S
C20          C21   1.412       .  A
C20        C2714   1.477       .  S
C21          C22   1.400       .  A
C21        C2724   1.485       .  S
C22          H23   1.085       .  S
C25          C26   1.416       .  A
C25          C30   1.401       .  A
C25        C2704   1.482       .  S
C26          C27   1.403       .  A
C26        C2694   1.483       .  S
C27          C28   1.406       .  A
C27          H32   1.084       .  S
C28          C29   1.418       .  A
C28        C2684   1.491       .  S
C29          C30   1.400       .  A
C29        C2674   1.480       .  S
C30          H31   1.085       .  S
C33          C34   1.416       .  A
C33          C38   1.408       .  A
C33        C2664   1.480       .  S
C34          C35   1.401       .  A
C34        C2654   1.488       .  S
C35          C36   1.404       .  A
C35          H40   1.085       .  S
C36          C37   1.414       .  A
C36        C2644   1.476       .  S
C37          C38   1.405       .  A
C37        C2634   1.491       .  S
C38          H39   1.084       .  S
C41          C42   1.415       .  A
C41          C46   1.405       .  A
C41        C2624   1.486       .  S
C42          C43   1.407       .  A
C42        C2614   1.486       .  S
C43          C44   1.407       .  A
C43          H48   1.084       .  S
C44          C45   1.417       .  A
C44        C2604   1.487       .  S
C45          C46   1.405       .  A
C45        C2594   1.487       .  S
C46          H47   1.084       .  S
C49          C50   1.419       .  A
C49          C54   1.405       .  A
C49        C2574   1.484       .  S
C50          C51   1.404       .  A
C50        C2584   1.490       .  S
C51          C52   1.402       .  A
C51          H56   1.085       .  S
C52          C53   1.415       .  A
C52        C2554   1.480       .  S
C53          C54   1.405       .  A
C53        C2564   1.489       .  S
C54          H55   1.084       .  S
C57          C58   1.413       .  A
C57          C62   1.403       .  A
C57        C2544   1.479       .  S
C58          C59   1.403       .  A
C58        C2537   1.483       .  S
C59          C60   1.405       .  A
C59          H64   1.084       .  S
C60          C61   1.414       .  A
C60        C2527   1.482       .  S
C61          C62   1.403       .  A
C61        C2514   1.482       .  S
C62          H63   1.084       .  S
C65          C66   1.418       .  A
C65          C70   1.406       .  A
C65        C2504   1.490       .  S
C66          C67   1.402       .  A
C66        C2497   1.482       .  S
C67          C68   1.401       .  A
C67          H72   1.085       .  S
C68          C69   1.415       .  A
C68        C2487   1.482       .  S
C69          C70   1.407       .  A
C69        C2474   1.489       .  S
C70          H71   1.084       .  S
C73          C74   1.414       .  A
C73          C78   1.408       .  A
C73        C2454   1.484       .  S
C74          C75   1.400       .  A
C74        C2464   1.484       .  S
C75          C76   1.402       .  A
C75          H80   1.085       .  S
C76          C77   1.418       .  A
C76        C2434   1.483       .  S
C77          C78   1.408       .  A
C77        C2444   1.490       .  S
C78          H79   1.084       .  S
C81          C82   1.418       .  A
C81          C86   1.402       .  A
C81        C2424   1.484       .  S
C82          C83   1.406       .  A
C82        C2414   1.489       .  S
C83          C84   1.402       .  A
C83          H88   1.084       .  S
C84          C85   1.414       .  A
C84        C2404   1.486       .  S
C85          C86   1.403       .  A
C85        C2394   1.477       .  S
C86          H87   1.085       .  S
C89          C90   1.413       .  A
C89          C94   1.401       .  A
C89        C2384   1.484       .  S
C90          C91   1.404       .  A
C90        C2374   1.480       .  S
C91          C92   1.407       .  A
C91          H96   1.084       .  S
C92          C93   1.420       .  A
C92        C2364   1.496       .  S
C93          C94   1.403       .  A
C93        C2354   1.481       .  S
C94          H95   1.085       .  S
N97          N98   1.324       .  A
N97         C101   1.348       .  A
N97        Cu105   2.088       .  S
N98          C99   1.344       .  A
N98        Cu104   2.078       .  S
C99         C100   1.383       .  A
C99         H102   1.082       .  S
C100        C101   1.386       .  A
C100       C2334   1.481       .  S
C101        H103   1.082       .  S
Cu104       N107   2.078       .  S
Cu105       N115   2.088       .  S
Cu106       N108   2.066       .  S
Cu106       N114   2.067       .  S
N107        N108   1.322       .  A
N107        C111   1.347       .  A
N108        C109   1.344       .  A
C109        C110   1.379       .  A
C109        H112   1.082       .  S
C110        C111   1.384       .  A
C110       C2344   1.471       .  S
C111        H113   1.082       .  S
N114        N115   1.323       .  A
N114        C118   1.344       .  A
N115        C116   1.349       .  A
C116        C117   1.385       .  A
C116        H119   1.082       .  S
C117        C118   1.379       .  A
C117       C2367   1.474       .  S
C118        H120   1.082       .  S
N121        N122   1.325       .  A
N121        C125   1.348       .  A
N121       Cu129   2.092       .  S
N122        C123   1.345       .  A
N122       Cu128   2.075       .  S
C123        C124   1.380       .  A
C123        H126   1.082       .  S
C124        C125   1.384       .  A
C124       C2314   1.473       .  S
C125        H127   1.082       .  S
Cu128       N131   2.074       .  S
Cu129       N139   2.092       .  S
Cu130       N132   2.064       .  S
Cu130       N138   2.064       .  S
N131        N132   1.321       .  A
N131        C135   1.345       .  A
N132        C133   1.344       .  A
C133        C134   1.383       .  A
C133        H136   1.082       .  S
C134        C135   1.385       .  A
C134       C2324   1.476       .  S
C135        H137   1.082       .  S
N138        N139   1.323       .  A
N138        C142   1.342       .  A
N139        C140   1.349       .  A
C140        C141   1.388       .  A
C140        H143   1.082       .  S
C141        C142   1.379       .  A
C141       C2397   1.477       .  S
C142        H144   1.082       .  S
N145        N146   1.325       .  A
N145        C149   1.354       .  A
N145       Cu153   2.119       .  S
N146        C147   1.339       .  A
N146       Cu152   2.056       .  S
C147        C148   1.375       .  A
C147        H150   1.082       .  S
C148        C149   1.392       .  A
C148       C2294   1.479       .  S
C149        H151   1.082       .  S
Cu152       N155   2.055       .  S
Cu153       N163   2.119       .  S
Cu154       N156   2.055       .  S
Cu154       N162   2.056       .  S
N155        N156   1.317       .  A
N155        C159   1.343       .  A
N156        C157   1.343       .  A
C157        C158   1.383       .  A
C157        H160   1.082       .  S
C158        C159   1.384       .  A
C158       C2304   1.472       .  S
C159        H161   1.082       .  S
N162        N163   1.324       .  A
N162        C166   1.340       .  A
N163        C164   1.355       .  A
C164        C165   1.395       .  A
C164        H167   1.082       .  S
C165        C166   1.378       .  A
C165       C2407   1.487       .  S
C166        H168   1.082       .  S
N169        N170   1.324       .  A
N169        C173   1.353       .  A
N169       Cu177   2.110       .  S
N170        C171   1.342       .  A
N170       Cu176   2.066       .  S
C171        C172   1.380       .  A
C171        H174   1.082       .  S
C172        C173   1.390       .  A
C172       C2274   1.483       .  S
C173        H175   1.082       .  S
Cu176       N179   2.065       .  S
Cu177       N187   2.110       .  S
Cu178       N180   2.072       .  S
Cu178       N186   2.073       .  S
N179        N180   1.320       .  A
N179        C183   1.345       .  A
N180        C181   1.346       .  A
C181        C182   1.383       .  A
C181        H184   1.082       .  S
C182        C183   1.381       .  A
C182       C2284   1.469       .  S
C183        H185   1.082       .  S
N186        N187   1.324       .  A
N186        C190   1.343       .  A
N187        C188   1.353       .  A
C188        C189   1.391       .  A
C188        H191   1.082       .  S
C189        C190   1.380       .  A
C189       C2597   1.485       .  S
C190        H192   1.082       .  S
N193        N194   1.323       .  A
N193        C197   1.351       .  A
N193       Cu201   2.109       .  S
N194        C195   1.341       .  A
N194       Cu200   2.058       .  S
C195        C196   1.379       .  A
C195        H198   1.082       .  S
C196        C197   1.393       .  A
C196       C2254   1.484       .  S
C197        H199   1.082       .  S
Cu200       N203   2.057       .  S
Cu201       N211   2.109       .  S
Cu202       N204   2.067       .  S
Cu202       N210   2.068       .  S
N203        N204   1.319       .  A
N203        C207   1.342       .  A
N204        C205   1.345       .  A
C205        C206   1.385       .  A
C205        H208   1.082       .  S
C206        C207   1.381       .  A
C206       C2264   1.472       .  S
C207        H209   1.082       .  S
N210        N211   1.325       .  A
N210        C214   1.341       .  A
N211        C212   1.353       .  A
C212        C213   1.390       .  A
C212        H215   1.082       .  S
C213        C214   1.379       .  A
C213       C2607   1.482       .  S
C214        H216   1.082       .  S
N217        N218   1.324       .  A
N217        C221   1.350       .  A
N217       Cu225   2.093       .  S
N218        C219   1.343       .  A
N218       Cu224   2.072       .  S
C219        C220   1.380       .  A
C219        H222   1.082       .  S
C220        C221   1.386       .  A
C220       C2234   1.477       .  S
C221        H223   1.082       .  S
Cu224       N227   2.072       .  S
Cu225       N235   2.092       .  S
Cu226       N228   2.066       .  S
Cu226       N234   2.067       .  S
N227        N228   1.321       .  A
N227        C231   1.346       .  A
N228        C229   1.344       .  A
C229        C230   1.380       .  A
C229        H232   1.082       .  S
C230        C231   1.382       .  A
C230       C2244   1.469       .  S
C231        H233   1.082       .  S
N234        N235   1.322       .  A
N234        C238   1.342       .  A
N235        C236   1.348       .  A
C236        C237   1.390       .  A
C236        H239   1.081       .  S
C237        C238   1.384       .  A
C237       C2357   1.487       .  S
C238        H240   1.082       .  S
C241        C242   1.415       .  A
C241        C246   1.420       .  A
C241       C2247   1.490       .  S
C242        C243   1.415       .  A
C242       C2347   1.489       .  S
C243        C244   1.414       .  A
C243       C2327   1.488       .  S
C244        C245   1.415       .  A
C244       C2307   1.484       .  S
C245        C246   1.417       .  A
C245       C2287   1.492       .  S
C246       C2267   1.489       .  S
C247        C248   1.415       .  A
C247        C252   1.404   1_556  A
C247       C2317   1.487       .  S
C248        C249   1.402   1_556  A
C248       C2337   1.482       .  S
C249        C250   1.404       .  A
C249        H254   1.085       .  S
C250        C251   1.417       .  A
C250       C2214   1.482       .  S
C251        C252   1.404       .  A
C251       C2227   1.484       .  S
C252        H253   1.084       .  S
C255        C256   1.420   1_545  A
C255        C260   1.408       .  A
C255       C2237   1.493   1_545  S
C256        C257   1.403   1_565  A
C256       C2257   1.483       .  S
C257        C258   1.399       .  A
C257        H262   1.085       .  S
C258        C259   1.413       .  A
C258       C2194   1.485       .  S
C259        C260   1.405       .  A
C259       C2204   1.480       .  S
C260        H261   1.084       .  S
C263        C264   1.415       .  A
C263        C268   1.406       .  A
C263       C2277   1.489   1_455  S
C264        C265   1.400       .  A
C264       C2297   1.481   1_455  S
C265        C266   1.401       .  A
C265        H270   1.085       .  S
C266        C267   1.420       .  A
C266       C2174   1.484       .  S
C267        C268   1.409       .  A
C267       C2187   1.495       .  S
C268        H269   1.084       .  S
N271        N272   1.324       .  A
N271        C275   1.353       .  A
N271       Cu279   2.111       .  S
N272        C273   1.341       .  A
N272       Cu278   2.062       .  S
C273        C274   1.378       .  A
C273        H276   1.082       .  S
C274        C275   1.392       .  A
C274       C2427   1.483       .  S
C275        H277   1.082       .  S
Cu278       N281   2.063       .  S
Cu279       N289   2.111       .  S
Cu280       N282   2.074       .  S
Cu280       N288   2.076       .  S
N281        N282   1.320       .  A
N281        C285   1.345       .  A
N282        C283   1.345       .  A
C283        C284   1.384       .  A
C283        H286   1.082       .  S
C284        C285   1.383       .  A
C284       C2167   1.475       .  S
C285        H287   1.082       .  S
N288        N289   1.325       .  A
N288        C292   1.345       .  A
N289        C290   1.352       .  A
C290        C291   1.390       .  A
C290        H293   1.082       .  S
C291        C292   1.380       .  A
C291       C2154   1.483       .  S
C292        H294   1.082       .  S
N295        N296   1.323       .  A
N295        C299   1.351       .  A
N295       Cu303   2.103       .  S
N296        C297   1.340       .  A
N296       Cu302   2.054       .  S
C297        C298   1.376       .  A
C297        H300   1.082       .  S
C298        C299   1.391       .  A
C298       C2557   1.478       .  S
C299        H301   1.082       .  S
Cu302       N305   2.053       .  S
Cu303       N313   2.103       .  S
Cu304       N306   2.064       .  S
Cu304       N312   2.065       .  S
N305        N306   1.318       .  A
N305        C309   1.342       .  A
N306        C307   1.344       .  A
C307        C308   1.386       .  A
C307        H310   1.082       .  S
C308        C309   1.383       .  A
C308       C2144   1.475       .  S
C309        H311   1.082       .  S
N312        N313   1.324       .  A
N312        C316   1.340       .  A
N313        C314   1.352       .  A
C314        C315   1.390       .  A
C314        H317   1.082       .  S
C315        C316   1.380       .  A
C315       C2134   1.483       .  S
C316        H318   1.082       .  S
N319        N320   1.323       .  A
N319        C323   1.348       .  A
N319       Cu327   2.090       .  S
N320        C321   1.343       .  A
N320       Cu326   2.064       .  S
C321        C322   1.378       .  A
C321        H324   1.082       .  S
C322        C323   1.385       .  A
C322       C2114   1.471       .  S
C323        H325   1.082       .  S
Cu326       N329   2.063       .  S
Cu327       N337   2.090       .  S
Cu328       N330   2.057       .  S
Cu328       N336   2.058       .  S
N329        N330   1.321       .  A
N329        C333   1.344       .  A
N330        C331   1.342       .  A
C331        C332   1.378       .  A
C331        H334   1.082       .  S
C332        C333   1.379       .  A
C332       C2124   1.460       .  S
C333        H335   1.082       .  S
N336        N337   1.323       .  A
N336        C340   1.343       .  A
N337        C338   1.348       .  A
C338        C339   1.385       .  A
C338        H341   1.082       .  S
C339        C340   1.378       .  A
C339       C2417   1.471       .  S
C340        H342   1.082       .  S
N343        N344   1.323       .  A
N343        C347   1.352       .  A
N343       Cu351   2.104       .  S
N344        C345   1.340       .  A
N344       Cu350   2.056       .  S
C345        C346   1.378       .  A
C345        H348   1.082       .  S
C346        C347   1.391       .  A
C346       C2094   1.480       .  S
C347        H349   1.082       .  S
Cu350       N353   2.055       .  S
Cu351       N361   2.104       .  S
Cu352       N354   2.051       .  S
Cu352       N360   2.052       .  S
N353        N354   1.318       .  A
N353        C357   1.342       .  A
N354        C355   1.342       .  A
C355        C356   1.381       .  A
C355        H358   1.082       .  S
C356        C357   1.382       .  A
C356       C2104   1.467       .  S
C357        H359   1.082       .  S
N360        N361   1.324       .  A
N360        C364   1.340       .  A
N361        C362   1.351       .  A
C362        C363   1.388       .  A
C362        H365   1.082       .  S
C363        C364   1.375       .  A
C363       C2647   1.473       .  S
C364        H366   1.082       .  S
N367        N368   1.325       .  A
N367        C371   1.353       .  A
N367       Cu375   2.116       .  S
N368        C369   1.342       .  A
N368       Cu374   2.063       .  S
C369        C370   1.378       .  A
C369        H372   1.082       .  S
C370        C371   1.391       .  A
C370       C2197   1.481       .  S
C371        H373   1.082       .  S
Cu374       N377   2.063       .  S
Cu375       N385   2.117       .  S
Cu376       N378   2.075       .  S
Cu376       N384   2.076       .  S
N377        N378   1.320       .  A
N377        C381   1.345       .  A
N378        C379   1.346       .  A
C379        C380   1.384       .  A
C379        H382   1.082       .  S
C380        C381   1.381       .  A
C380       C2084   1.473       .  S
C381        H383   1.082       .  S
N384        N385   1.325       .  A
N384        C388   1.344       .  A
N385        C386   1.354       .  A
C386        C387   1.392       .  A
C386        H389   1.082       .  S
C387        C388   1.381       .  A
C387       C2637   1.488       .  S
C388        H390   1.082       .  S
N391        N392   1.324       .  A
N391        C395   1.350       .  A
N391       Cu399   2.103       .  S
N392        C393   1.344       .  A
N392       Cu398   2.065       .  S
C393        C394   1.378       .  A
C393        H396   1.082       .  S
C394        C395   1.387       .  A
C394       C2567   1.477       .  S
C395        H397   1.082       .  S
Cu398       N401   2.063       .  S
Cu399       N409   2.102       .  S
Cu400       N402   2.058       .  S
Cu400       N408   2.058       .  S
N401        N402   1.320       .  A
N401        C405   1.344       .  A
N402        C403   1.343       .  A
C403        C404   1.379       .  A
C403        H406   1.082       .  S
C404        C405   1.380       .  A
C404       C2074   1.462       .  S
C405        H407   1.082       .  S
N408        N409   1.323       .  A
N408        C412   1.340       .  A
N409        C410   1.351       .  A
C410        C411   1.390       .  A
C410        H413   1.082       .  S
C411        C412   1.379       .  A
C411       C2207   1.480       .  S
C412        H414   1.082       .  S
C415        C416   1.412       .  A
C415        C420   1.413       .  A
C415       C2164   1.490       .  S
C416        C417   1.417       .  A
C416       C2147   1.484       .  S
C417        C418   1.413       .  A
C417       C2077   1.483       .  S
C418        C419   1.412       .  A
C418       C2087   1.491       .  S
C419        C420   1.415       .  A
C419       C2107   1.484       .  S
C420       C2127   1.483       .  S
N421        N422   1.324       .  A
N421        C425   1.351       .  A
N421       Cu429   2.102       .  S
N422        C423   1.343       .  A
N422       Cu428   2.074       .  S
C423        C424   1.381       .  A
C423        H426   1.082       .  S
C424        C425   1.390       .  A
C424       C2054   1.484       .  S
C425        H427   1.082       .  S
Cu428       N431   2.072       .  S
Cu429       N439   2.101       .  S
Cu430       N432   2.054       .  S
Cu430       N438   2.055       .  S
N431        N432   1.320       .  A
N431        C435   1.346       .  A
N432        C433   1.342       .  A
C433        C434   1.379       .  A
C433        H436   1.082       .  S
C434        C435   1.384       .  A
C434       C2064   1.469       .  S
C435        H437   1.082       .  S
N438        N439   1.322       .  A
N438        C442   1.340       .  A
N439        C440   1.351       .  A
C440        C441   1.390       .  A
C440        H443   1.082       .  S
C441        C442   1.379       .  A
C441       C2377   1.481       .  S
C442        H444   1.082       .  S
N445        N446   1.325       .  A
N445        C449   1.352       .  A
N445       Cu453   2.110       .  S
N446        C447   1.344       .  A
N446       Cu452   2.071       .  S
C447        C448   1.377       .  A
C447        H450   1.082       .  S
C448        C449   1.388       .  A
C448       C2034   1.478       .  S
C449        H451   1.082       .  S
Cu452       N455   2.069       .  S
Cu453       N463   2.109       .  S
Cu454       N456   2.056       .  S
Cu454       N462   2.057       .  S
N455        N456   1.319       .  A
N455        C459   1.345       .  A
N456        C457   1.342       .  A
C457        C458   1.381       .  A
C457        H460   1.082       .  S
C458        C459   1.385       .  A
C458       C2044   1.473       .  S
C459        H461   1.082       .  S
N462        N463   1.323       .  A
N462        C466   1.341       .  A
N463        C464   1.352       .  A
C464        C465   1.393       .  A
C464        H467   1.082       .  S
C465        C466   1.379       .  A
C465       C2524   1.483       .  S
C466        H468   1.082       .  S
N469        N470   1.323       .  A
N469        C473   1.354       .  A
N469       Cu477   2.119       .  S
N470        C471   1.341       .  A
N470       Cu476   2.057       .  S
C471        C472   1.378       .  A
C471        H474   1.082       .  S
C472        C473   1.394       .  A
C472       C2387   1.486       .  S
C473        H475   1.082       .  S
Cu476       N479   2.056       .  S
Cu477       N487   2.120       .  S
Cu478       N480   2.065       .  S
Cu478       N486   2.066       .  S
N479        N480   1.319       .  A
N479        C483   1.342       .  A
N480        C481   1.345       .  A
C481        C482   1.385       .  A
C481        H484   1.082       .  S
C482        C483   1.381       .  A
C482       C2024   1.471       .  S
C483        H485   1.082       .  S
N486        N487   1.325       .  A
N486        C490   1.341       .  A
N487        C488   1.354       .  A
C488        C489   1.393       .  A
C488        H491   1.082       .  S
C489        C490   1.379       .  A
C489       C2014   1.488       .  S
C490        H492   1.082       .  S
N493        N494   1.325       .  A
N493        C497   1.349       .  A
N493       Cu501   2.099       .  S
N494        C495   1.343       .  A
N494       Cu500   2.063       .  S
C495        C496   1.376       .  A
C495        H498   1.082       .  S
C496        C497   1.385       .  A
C496       C1994   1.471       .  S
C497        H499   1.082       .  S
Cu500       N503   2.061       .  S
Cu501       N511   2.098       .  S
Cu502       N504   2.053       .  S
Cu502       N510   2.054       .  S
N503        N504   1.319       .  A
N503        C507   1.343       .  A
N504        C505   1.343       .  A
C505        C506   1.381       .  A
C505        H508   1.082       .  S
C506        C507   1.383       .  A
C506       C2004   1.468       .  S
C507        H509   1.082       .  S
N510        N511   1.322       .  A
N510        C514   1.338       .  A
N511        C512   1.352       .  A
C512        C513   1.393       .  A
C512        H515   1.081       .  S
C513        C514   1.379       .  A
C513       C2677   1.484       .  S
C514        H516   1.082       .  S
N517        N518   1.324       .  A
N517        C521   1.351       .  A
N517       Cu525   2.099       .  S
N518        C519   1.342       .  A
N518       Cu524   2.061       .  S
C519        C520   1.377       .  A
C519        H522   1.082       .  S
C520        C521   1.387       .  A
C520       C2517   1.474       .  S
C521        H523   1.082       .  S
Cu524       N527   2.060       .  S
Cu525       N535   2.100       .  S
Cu526       N528   2.061       .  S
Cu526       N534   2.062       .  S
N527        N528   1.320       .  A
N527        C531   1.342       .  A
N528        C529   1.345       .  A
C529        C530   1.382       .  A
C529        H532   1.082       .  S
C530        C531   1.382       .  A
C530       C1984   1.469       .  S
C531        H533   1.082       .  S
N534        N535   1.323       .  A
N534        C538   1.341       .  A
N535        C536   1.350       .  A
C536        C537   1.391       .  A
C536        H539   1.081       .  S
C537        C538   1.380       .  A
C537       C2177   1.483       .  S
C538        H540   1.082       .  S
N541        N542   1.324       .  A
N541        C545   1.348       .  A
N541       Cu549   2.096       .  S
N542        C543   1.345       .  A
N542       Cu548   2.071       .  S
C543        C544   1.382       .  A
C543        H546   1.082       .  S
C544        C545   1.387       .  A
C544       C2184   1.479       .  S
C545        H547   1.082       .  S
Cu548       N551   2.070       .  S
Cu549       N559   2.096       .  S
Cu550       N552   2.062       .  S
Cu550       N558   2.062       .  S
N551        N552   1.322       .  A
N551        C555   1.345       .  A
N552        C553   1.343       .  A
C553        C554   1.379       .  A
C553        H556   1.082       .  S
C554        C555   1.380       .  A
C554       C1974   1.465       .  S
C555        H557   1.082       .  S
N558        N559   1.323       .  A
N558        C562   1.343       .  A
N559        C560   1.350       .  A
C560        C561   1.387       .  A
C560        H563   1.082       .  S
C561        C562   1.378       .  A
C561       C2687   1.473       .  S
C562        H564   1.082       .  S
C565        C566   1.414       .  A
C565        C570   1.413       .  A
C565       C2007   1.482       .  S
C566        C567   1.411       .  A
C566       C2027   1.484       .  S
C567        C568   1.410       .  A
C567       C2067   1.483       .  S
C568        C569   1.409       .  A
C568       C2047   1.482       .  S
C569        C570   1.411       .  A
C569       C1987   1.482       .  S
C570       C1977   1.485       .  S
C571        C572   1.419       .  A
C571        C576   1.405   1_565  A
C571       C1997   1.485       .  S
C572        C573   1.407   1_565  A
C572       C2017   1.493       .  S
C573        C574   1.406       .  A
C573        H578   1.084       .  S
C574        C575   1.413       .  A
C574       C1957   1.481       .  S
C575        C576   1.402       .  A
C575       C1964   1.487       .  S
C576        H577   1.085       .  S
N579        N580   1.324       .  A
N579        C583   1.352       .  A
N579       Cu587   2.115       .  S
N580        C581   1.342       .  A
N580       Cu586   2.063       .  S
C581        C582   1.380       .  A
C581        H584   1.082       .  S
C582        C583   1.394       .  A
C582       C1934   1.488       .  S
C583        H585   1.081       .  S
Cu586       N589   2.062       .  S
Cu587       N597   2.115       .  S
Cu588       N590   2.057       .  S
Cu588       N596   2.058       .  S
N589        N590   1.319       .  A
N589        C593   1.344       .  A
N590        C591   1.343       .  A
C591        C592   1.383       .  A
C591        H594   1.082       .  S
C592        C593   1.384       .  A
C592       C1944   1.474       .  S
C593        H595   1.082       .  S
N596        N597   1.324       .  A
N596        C600   1.342       .  A
N597        C598   1.353       .  A
C598        C599   1.391       .  A
C598        H601   1.082       .  S
C599        C600   1.375       .  A
C599       C2587   1.477       .  S
C600        H602   1.082       .  S
N603        N604   1.324       .  A
N603        C607   1.352       .  A
N603       Cu611   2.106       .  S
N604        C605   1.342       .  A
N604       Cu610   2.058       .  S
C605        C606   1.375       .  A
C605        H608   1.082       .  S
C606        C607   1.388       .  A
C606       C1917   1.473       .  S
C607        H609   1.082       .  S
Cu610       N613   2.058       .  S
Cu611       N621   2.106       .  S
Cu612       N614   2.069       .  S
Cu612       N620   2.070       .  S
N613        N614   1.319       .  A
N613        C617   1.343       .  A
N614        C615   1.345       .  A
C615        C616   1.384       .  A
C615        H618   1.082       .  S
C616        C617   1.382       .  A
C616       C1924   1.474       .  S
C617        H619   1.082       .  S
N620        N621   1.324       .  A
N620        C624   1.343       .  A
N621        C622   1.351       .  A
C622        C623   1.391       .  A
C622        H625   1.082       .  S
C623        C624   1.381       .  A
C623       C2534   1.486       .  S
C624        H626   1.082       .  S
N627        N628   1.323       .  A
N627        C631   1.350       .  A
N627       Cu635   2.103       .  S
N628        C629   1.342       .  A
N628       Cu634   2.059       .  S
C629        C630   1.378       .  A
C629        H632   1.082       .  S
C630        C631   1.390       .  A
C630       C2807   1.481       .  S
C631        H633   1.082       .  S
Cu634       N637   2.059       .  S
Cu635       N645   2.103       .  S
Cu636       N638   2.068       .  S
Cu636       N644   2.069       .  S
N637        N638   1.320       .  A
N637        C641   1.343       .  A
N638        C639   1.345       .  A
C639        C640   1.383       .  A
C639        H642   1.082       .  S
C640        C641   1.381       .  A
C640       C1907   1.471       .  S
C641        H643   1.082       .  S
N644        N645   1.324       .  A
N644        C648   1.343       .  A
N645        C646   1.352       .  A
C646        C647   1.390       .  A
C646        H649   1.082       .  S
C647        C648   1.379       .  A
C647       C1967   1.482       .  S
C648        H650   1.082       .  S
N651        N652   1.324       .  A
N651        C655   1.352       .  A
N651       Cu659   2.105       .  S
N652        C653   1.341       .  A
N652       Cu658   2.064       .  S
C653        C654   1.379       .  A
C653        H656   1.082       .  S
C654        C655   1.390       .  A
C654       C1954   1.481       .  S
C655        H657   1.082       .  S
Cu658       N661   2.063       .  S
Cu659       N669   2.105       .  S
Cu660       N662   2.060       .  S
Cu660       N668   2.061       .  S
N661        N662   1.319       .  A
N661        C665   1.343       .  A
N662        C663   1.344       .  A
C663        C664   1.384       .  A
C663        H666   1.082       .  S
C664        C665   1.384       .  A
C664       C1894   1.474       .  S
C665        H667   1.082       .  S
N668        N669   1.323       .  A
N668        C672   1.340       .  A
N669        C670   1.352       .  A
C670        C671   1.393       .  A
C670        H673   1.081       .  S
C671        C672   1.381       .  A
C671       C2577   1.488       .  S
C672        H674   1.082       .  S
N675        N676   1.324       .  A
N675        C679   1.354       .  A
N675       Cu683   2.115       .  S
N676        C677   1.340       .  A
N676       Cu682   2.057       .  S
C677        C678   1.376       .  A
C677        H680   1.082       .  S
C678        C679   1.392       .  A
C678       C2797   1.482       .  S
C679        H681   1.082       .  S
Cu682       N685   2.056       .  S
Cu683       N693   2.115       .  S
Cu684       N686   2.055       .  S
Cu684       N692   2.056       .  S
N685        N686   1.318       .  A
N685        C689   1.343       .  A
N686        C687   1.343       .  A
C687        C688   1.383       .  A
C687        H690   1.082       .  S
C688        C689   1.382       .  A
C688       C1884   1.471       .  S
C689        H691   1.082       .  S
N692        N693   1.324       .  A
N692        C696   1.340       .  A
N693        C694   1.354       .  A
C694        C695   1.393       .  A
C694        H697   1.082       .  S
C695        C696   1.377       .  A
C695       C1874   1.482       .  S
C696        H698   1.082       .  S
N699        N700   1.324       .  A
N699        C703   1.352       .  A
N699       Cu707   2.100       .  S
N700        C701   1.342       .  A
N700       Cu706   2.070       .  S
C701        C702   1.381       .  A
C701        H704   1.082       .  S
C702        C703   1.390       .  A
C702       C1854   1.484       .  S
C703        H705   1.082       .  S
Cu706       N709   2.069       .  S
Cu707       N717   2.099       .  S
Cu708       N710   2.058       .  S
Cu708       N716   2.059       .  S
N709        N710   1.319       .  A
N709        C713   1.345       .  A
N710        C711   1.343       .  A
C711        C712   1.382       .  A
C711        H714   1.082       .  S
C712        C713   1.384       .  A
C712       C1864   1.473       .  S
C713        H715   1.082       .  S
N716        N717   1.323       .  A
N716        C720   1.341       .  A
N717        C718   1.351       .  A
C718        C719   1.388       .  A
C718        H721   1.082       .  S
C719        C720   1.378       .  A
C719       C2547   1.477       .  S
C720        H722   1.082       .  S
C723        C724   1.409       .  A
C723        C728   1.411       .  A
C723       C1867   1.483       .  S
C724        C725   1.411       .  A
C724       C1927   1.483       .  S
C725        C726   1.413       .  A
C725       C1947   1.482       .  S
C726        C727   1.415       .  A
C726       C1897   1.486       .  S
C727        C728   1.414       .  A
C727       C1904   1.486       .  S
C728       C1887   1.483       .  S
C729        C730   1.418       .  A
C729        C734   1.405   1_655  A
C729       C2117   1.490       .  S
C730        C731   1.401   1_655  A
C730       C2097   1.482       .  S
C731        C732   1.403       .  A
C731        H736   1.085       .  S
C732        C733   1.417       .  A
C732       C1877   1.484       .  S
C733        C734   1.402       .  A
C733       C1857   1.484       .  S
C734        H735   1.084       .  S
C737        C738   1.418       .  A
C737        C742   1.400   1_556  A
C737       C1937   1.483       .  S
C738        C739   1.408   1_556  A
C738       C1914   1.487       .  S
C739        C740   1.403       .  A
C739        H744   1.084       .  S
C740        C741   1.411       .  A
C740       C1847   1.484       .  S
C741        C742   1.400       .  A
C741       C1837   1.475       .  S
C742        H743   1.085       .  S
C745        C746   1.419       .  A
C745        C750   1.407       .  A
C745       C1824   1.490       .  S
C746        C747   1.402       .  A
C746       C1814   1.487       .  S
C747        C748   1.406       .  A
C747        H752   1.085       .  S
C748        C749   1.416       .  A
C748       C1807   1.487   1_545  S
C749        C750   1.403       .  A
C749       C1794   1.487   1_545  S
C750        H751   1.084       .  S
N753        N754   1.324       .  A
N753        C757   1.349       .  A
N753       Cu761   2.090       .  S
N754        C755   1.345       .  A
N754       Cu760   2.077       .  S
C755        C756   1.382       .  A
C755        H758   1.082       .  S
C756        C757   1.386       .  A
C756       C1844   1.479       .  S
C757        H759   1.082       .  S
Cu760       N763   2.076       .  S
Cu761       N771   2.090       .  S
Cu762       N764   2.062       .  S
Cu762       N770   2.062       .  S
N763        N764   1.320       .  A
N763        C767   1.344       .  A
N764        C765   1.345       .  A
C765        C766   1.383       .  A
C765        H768   1.082       .  S
C766        C767   1.385       .  A
C766       C1784   1.476       .  S
C767        H769   1.082       .  S
N770        N771   1.323       .  A
N770        C774   1.342       .  A
N771        C772   1.349       .  A
C772        C773   1.385       .  A
C772        H775   1.082       .  S
C773        C774   1.377       .  A
C773       C2787   1.469       .  S
C774        H776   1.082       .  S
N777        N778   1.324       .  A
N777        C781   1.349       .  A
N777       Cu785   2.090       .  S
N778        C779   1.342       .  A
N778       Cu784   2.066       .  S
C779        C780   1.377       .  A
C779        H782   1.082       .  S
C780        C781   1.386       .  A
C780       C1834   1.472       .  S
C781        H783   1.082       .  S
Cu784       N787   2.065       .  S
Cu785       N795   2.089       .  S
Cu786       N788   2.063       .  S
Cu786       N794   2.063       .  S
N787        N788   1.320       .  A
N787        C791   1.345       .  A
N788        C789   1.344       .  A
C789        C790   1.380       .  A
C789        H792   1.082       .  S
C790        C791   1.381       .  A
C790       C1774   1.467       .  S
C791        H793   1.082       .  S
N794        N795   1.322       .  A
N794        C798   1.339       .  A
N795        C796   1.350       .  A
C796        C797   1.390       .  A
C796        H799   1.081       .  S
C797        C798   1.381       .  A
C797       C2737   1.482       .  S
C798        H800   1.082       .  S
N801        N802   1.324       .  A
N801        C805   1.351       .  A
N801       Cu809   2.104       .  S
N802        C803   1.342       .  A
N802       Cu808   2.064       .  S
C803        C804   1.376       .  A
C803        H806   1.082       .  S
C804        C805   1.388       .  A
C804       C1827   1.475       .  S
C805        H807   1.082       .  S
Cu808       N811   2.064       .  S
Cu809       N819   2.104       .  S
Cu810       N812   2.071       .  S
Cu810       N818   2.072       .  S
N811        N812   1.320       .  A
N811        C815   1.345       .  A
N812        C813   1.345       .  A
C813        C814   1.384       .  A
C813        H816   1.082       .  S
C814        C815   1.383       .  A
C814       C1767   1.475       .  S
C815        H817   1.082       .  S
N818        N819   1.324       .  A
N818        C822   1.344       .  A
N819        C820   1.351       .  A
C820        C821   1.388       .  A
C820        H823   1.082       .  S
C821        C822   1.379       .  A
C821       C2747   1.477       .  S
C822        H824   1.082       .  S
N825        N826   1.323       .  A
N825        C829   1.354       .  A
N825       Cu833   2.121       .  S
N826        C827   1.340       .  A
N826       Cu832   2.054       .  S
C827        C828   1.379       .  A
C827        H830   1.081       .  S
C828        C829   1.397       .  A
C828       C2817   1.491       .  S
C829        H831   1.082       .  S
Cu832       N835   2.053       .  S
Cu833       N843   2.122       .  S
Cu834       N836   2.060       .  S
Cu834       N842   2.062       .  S
N835        N836   1.319       .  A
N835        C839   1.342       .  A
N836        C837   1.345       .  A
C837        C838   1.381       .  A
C837        H840   1.082       .  S
C838        C839   1.379       .  A
C838       C1754   1.463       .  S
C839        H841   1.082       .  S
N842        N843   1.325       .  A
N842        C846   1.341       .  A
N843        C844   1.354       .  A
C844        C845   1.395       .  A
C844        H847   1.082       .  S
C845        C846   1.378       .  A
C845       C1817   1.488       .  S
C846        H848   1.082       .  S
N849        N850   1.324       .  A
N849        C853   1.349       .  A
N849       Cu857   2.095       .  S
N850        C851   1.344       .  A
N850       Cu856   2.068       .  S
C851        C852   1.379       .  A
C851        H854   1.082       .  S
C852        C853   1.386       .  A
C852       C2824   1.475       .  S
C853        H855   1.082       .  S
Cu856       N859   2.068       .  S
Cu857       N867   2.096       .  S
Cu858       N860   2.075       .  S
Cu858       N866   2.076       .  S
N859        N860   1.321       .  A
N859        C863   1.344       .  A
N860        C861   1.346       .  A
C861        C862   1.385       .  A
C861        H864   1.082       .  S
C862        C863   1.383       .  A
C862       C1747   1.476       .  S
C863        H865   1.082       .  S
N866        N867   1.323       .  A
N866        C870   1.343       .  A
N867        C868   1.350       .  A
C868        C869   1.390       .  A
C868        H871   1.082       .  S
C869        C870   1.384       .  A
C869       C1734   1.486       .  S
C870        H872   1.082       .  S
N873        N874   1.324       .  A
N873        C877   1.351       .  A
N873       Cu881   2.101       .  S
N874        C875   1.343       .  A
N874       Cu880   2.068       .  S
C875        C876   1.378       .  A
C875        H878   1.087       .  S
C876        C877   1.388       .  A
C876       C1714   1.476       .  S
C877        H879   1.075       .  S
Cu880       N883   2.067       .  S
Cu881       N891   2.101       .  S
Cu882       N884   2.071       .  S
Cu882       N890   2.073       .  S
N883        N884   1.322       .  A
N883        C887   1.346       .  A
N884        C885   1.344       .  A
C885        C886   1.380       .  A
C885        H888   1.082       .  S
C886        C887   1.381       .  A
C886       C1724   1.467       .  S
C887        H889   1.082       .  S
N890        N891   1.323       .  A
N890        C894   1.343       .  A
N891        C892   1.351       .  A
C892        C893   1.392       .  A
C892        H895   1.081       .  S
C893        C894   1.384       .  A
C893       C2777   1.490       .  S
C894        H896   1.082       .  S
C897        C898   1.419       .  A
C897        C902   1.419       .  A
C897       C1764   1.498       .  S
C898        C899   1.420       .  A
C898       C1777   1.492       .  S
C899        C900   1.420       .  A
C899       C1787   1.494       .  S
C900        C901   1.418       .  A
C900       C1727   1.492       .  S
C901        C902   1.420       .  A
C901       C1744   1.498       .  S
C902       C1757   1.488       .  S
C903        C904   1.415       .  A
C903        C908   1.406       .  A
C903       C1737   1.483       .  S
C904        C905   1.402       .  A
C904       C1717   1.484       .  S
C905        C906   1.403       .  A
C905        H910   1.084       .  S
C906        C907   1.416       .  A
C906       C1707   1.480   1_455  S
C907        C908   1.406       .  A
C907       C1697   1.487   1_455  S
C908        H909   1.084       .  S
C911        C912   1.413       .  A
C911        C916   1.405   1_556  A
C911       C2157   1.491       .  S
C912        C913   1.401   1_556  A
C912       C2137   1.485       .  S
C913        C914   1.407       .  A
C913        H918   1.085       .  S
C914        C915   1.427       .  A
C914       C1687   1.493       .  S
C915        C916   1.411       .  A
C915       C1674   1.501       .  S
C916        H917   1.084       .  S
N919        N920   1.321       .  A
N919        C923   1.350       .  A
N919       Cu927   2.091       .  S
N920        C921   1.341       .  A
N920       Cu926   2.060       .  S
C921        C922   1.381       .  A
C921        H924   1.082       .  S
C922        C923   1.391       .  A
C922       C1704   1.483       .  S
C923        H925   1.082       .  S
Cu926       N929   2.060       .  S
Cu927       N937   2.092       .  S
Cu928       N930   2.081       .  S
Cu928       N936   2.081       .  S
N929        N930   1.320       .  A
N929        C933   1.342       .  A
N930        C931   1.347       .  A
C931        C932   1.388       .  A
C931        H934   1.082       .  S
C932        C933   1.383       .  A
C932       C1664   1.481       .  S
C933        H935   1.082       .  S
N936        N937   1.325       .  A
N936        C940   1.345       .  A
N937        C938   1.349       .  A
C938        C939   1.385       .  A
C938        H941   1.082       .  S
C939        C940   1.380       .  A
C939       C2467   1.478       .  S
C940        H942   1.082       .  S
N943        N944   1.324       .  A
N943        C947   1.352       .  A
N943       Cu951   2.109       .  S
N944        C945   1.344       .  A
N944       Cu950   2.068       .  S
C945        C946   1.380       .  A
C945        H948   1.082       .  S
C946        C947   1.390       .  A
C946       C1694   1.483       .  S
C947        H949   1.082       .  S
Cu950       N953   2.067       .  S
Cu951       N961   2.110       .  S
Cu952       N954   2.077       .  S
Cu952       N960   2.078       .  S
N953        N954   1.321       .  A
N953        C957   1.343       .  A
N954        C955   1.347       .  A
C955        C956   1.387       .  A
C955        H958   1.082       .  S
C956        C957   1.383       .  A
C956       C1654   1.478       .  S
C957        H959   1.082       .  S
N960        N961   1.325       .  A
N960        C964   1.344       .  A
N961        C962   1.353       .  A
C962        C963   1.392       .  A
C962        H965   1.082       .  S
C963        C964   1.382       .  A
C963       C2657   1.488       .  S
C964        H966   1.082       .  S
N967        N968   1.324       .  A
N967        C971   1.349       .  A
N967       Cu975   2.094       .  S
N968        C969   1.345       .  A
N968       Cu974   2.077       .  S
C969        C970   1.383       .  A
C969        H972   1.082       .  S
C970        C971   1.386       .  A
C970       C2727   1.482       .  S
C971        H973   1.082       .  S
Cu974       N977   2.077       .  S
Cu975       N985   2.094       .  S
Cu976       N978   2.068       .  S
Cu976       N984   2.068       .  S
N977        N978   1.322       .  A
N977        C981   1.346       .  A
N978        C979   1.345       .  A
C979        C980   1.381       .  A
C979        H982   1.082       .  S
C980        C981   1.382       .  A
C980       C1644   1.471       .  S
C981        H983   1.082       .  S
N984        N985   1.323       .  A
N984        C988   1.343       .  A
N985        C986   1.349       .  A
C986        C987   1.389       .  A
C986        H989   1.082       .  S
C987        C988   1.379       .  A
C987       C1684   1.478       .  S
C988        H990   1.082       .  S
N991        N992   1.324       .  A
N991        C995   1.351       .  A
N991       Cu999   2.109       .  S
N992        C993   1.343       .  A
N992       Cu998   2.059       .  S
C993        C994   1.378       .  A
C993        H996   1.082       .  S
C994        C995   1.389       .  A
C994       C2457   1.479       .  S
C995        H997   1.082       .  S
Cu998      N1001   2.057       .  S
Cu999      N1009   2.110       .  S
Cu1000     N1002   2.066       .  S
Cu1000     N1008   2.066       .  S
N1001      N1002   1.320       .  A
N1001      C1005   1.342       .  A
N1002      C1003   1.345       .  A
C1003      C1004   1.382       .  A
C1003      H1006   1.082       .  S
C1004      C1005   1.380       .  A
C1004      C1637   1.468       .  S
C1005      H1007   1.082       .  S
N1008      N1009   1.321       .  A
N1008      C1012   1.341       .  A
N1009      C1010   1.351       .  A
C1010      C1011   1.398       .  A
C1010      H1013   1.081       .  S
C1011      C1012   1.386       .  A
C1011      C1677   1.501       .  S
C1012      H1014   1.078       .  S
N1015      N1016   1.325       .  A
N1015      C1019   1.349       .  A
N1015     Cu1023   2.088       .  S
N1016      C1017   1.341       .  A
N1016     Cu1022   2.068       .  S
C1017      C1018   1.379       .  A
C1017      H1020   1.082       .  S
C1018      C1019   1.385       .  A
C1018      C2717   1.474       .  S
C1019      H1021   1.082       .  S
Cu1022     N1025   2.067       .  S
Cu1023     N1033   2.087       .  S
Cu1024     N1026   2.057       .  S
Cu1024     N1032   2.057       .  S
N1025      N1026   1.320       .  A
N1025      C1029   1.347       .  A
N1026      C1027   1.341       .  A
C1027      C1028   1.380       .  A
C1027      H1030   1.082       .  S
C1028      C1029   1.384       .  A
C1028      C1624   1.469       .  S
C1029      H1031   1.082       .  S
N1032      N1033   1.322       .  A
N1032      C1036   1.341       .  A
N1033      C1034   1.349       .  A
C1034      C1035   1.386       .  A
C1034      H1037   1.082       .  S
C1035      C1036   1.378       .  A
C1035      C1617   1.474       .  S
C1036      H1038   1.082       .  S
N1039      N1040   1.323       .  A
N1039      C1043   1.350       .  A
N1039     Cu1047   2.096       .  S
N1040      C1041   1.341       .  A
N1040     Cu1046   2.057       .  S
C1041      C1042   1.378       .  A
C1041      H1044   1.082       .  S
C1042      C1043   1.389       .  A
C1042      C1594   1.477       .  S
C1043      H1045   1.082       .  S
Cu1046     N1049   2.056       .  S
Cu1047     N1057   2.097       .  S
Cu1048     N1050   2.070       .  S
Cu1048     N1056   2.071       .  S
N1049      N1050   1.319       .  A
N1049      C1053   1.342       .  A
N1050      C1051   1.345       .  A
C1051      C1052   1.386       .  A
C1051      H1054   1.082       .  S
C1052      C1053   1.382       .  A
C1052      C1604   1.476       .  S
C1053      H1055   1.082       .  S
N1056      N1057   1.324       .  A
N1056      C1060   1.343       .  A
N1057      C1058   1.351       .  A
C1058      C1059   1.387       .  A
C1058      H1061   1.082       .  S
C1059      C1060   1.379       .  A
C1059      C2667   1.477       .  S
C1060      H1062   1.082       .  S
C1063      C1064   1.412       .  A
C1063      C1068   1.412       .  A
C1063      C1634   1.478       .  S
C1064      C1065   1.410       .  A
C1064      C1667   1.487       .  S
C1065      C1066   1.415       .  A
C1065      C1657   1.487       .  S
C1066      C1067   1.415       .  A
C1066      C1607   1.482       .  S
C1067      C1068   1.415       .  A
C1067      C1627   1.485       .  S
C1068      C1647   1.491       .  S
C1069      C1070   1.411       .  A
C1069      C1074   1.404       .  A
C1069      C1614   1.476       .  S
C1070      C1071   1.398       .  A
C1070      C1597   1.478       .  S
C1071      C1072   1.399       .  A
C1071      H1076   1.085       .  S
C1072      C1073   1.414       .  A
C1072      C1577   1.476   1_545  S
C1073      C1074   1.403       .  A
C1073      C1587   1.479   1_545  S
C1074      H1075   1.084       .  S
N1077      N1078   1.324       .  A
N1077      C1081   1.351       .  A
N1077     Cu1085   2.108       .  S
N1078      C1079   1.340       .  A
N1078     Cu1084   2.048       .  S
C1079      C1080   1.374       .  A
C1079      H1082   1.082       .  S
C1080      C1081   1.390       .  A
C1080      C1574   1.475       .  S
C1081      H1083   1.082       .  S
Cu1084     N1087   2.048       .  S
Cu1085     N1095   2.109       .  S
Cu1086     N1088   2.068       .  S
Cu1086     N1094   2.070       .  S
N1087      N1088   1.319       .  A
N1087      C1091   1.342       .  A
N1088      C1089   1.343       .  A
C1089      C1090   1.385       .  A
C1089      H1092   1.082       .  S
C1090      C1091   1.382       .  A
C1090      C1564   1.473       .  S
C1091      H1093   1.082       .  S
N1094      N1095   1.324       .  A
N1094      C1098   1.342       .  A
N1095      C1096   1.353       .  A
C1096      C1097   1.391       .  A
C1096      H1099   1.082       .  S
C1097      C1098   1.381       .  A
C1097      C2617   1.486       .  S
C1098      H1100   1.082       .  S
N1101      N1102   1.326       .  A
N1101      C1105   1.351       .  A
N1101     Cu1109   2.102       .  S
N1102      C1103   1.342       .  A
N1102     Cu1108   2.072       .  S
C1103      C1104   1.378       .  A
C1103      H1106   1.082       .  S
C1104      C1105   1.386       .  A
C1104      C1584   1.475       .  S
C1105      H1107   1.082       .  S
Cu1108     N1111   2.070       .  S
Cu1109     N1119   2.101       .  S
Cu1110     N1112   2.054       .  S
Cu1110     N1118   2.054       .  S
N1111      N1112   1.320       .  A
N1111      C1115   1.346       .  A
N1112      C1113   1.342       .  A
C1113      C1114   1.378       .  A
C1113      H1116   1.082       .  S
C1114      C1115   1.383       .  A
C1114      C1554   1.465       .  S
C1115      H1117   1.082       .  S
N1118      N1119   1.322       .  A
N1118      C1122   1.340       .  A
N1119      C1120   1.352       .  A
C1120      C1121   1.391       .  A
C1120      H1123   1.082       .  S
C1121      C1122   1.378       .  A
C1121      C2484   1.481       .  S
C1122      H1124   1.082       .  S
N1125      N1126   1.324       .  A
N1125      C1129   1.353       .  A
N1125     Cu1133   2.110       .  S
N1126      C1127   1.344       .  A
N1126     Cu1132   2.075       .  S
C1127      C1128   1.382       .  A
C1127      H1130   1.082       .  S
C1128      C1129   1.391       .  A
C1128      C1537   1.487       .  S
C1129      H1131   1.082       .  S
Cu1132     N1135   2.074       .  S
Cu1133     N1143   2.110       .  S
Cu1134     N1136   2.071       .  S
Cu1134     N1142   2.071       .  S
N1135      N1136   1.321       .  A
N1135      C1139   1.346       .  A
N1136      C1137   1.345       .  A
C1137      C1138   1.383       .  A
C1137      H1140   1.082       .  S
C1138      C1139   1.383       .  A
C1138      C1544   1.474       .  S
C1139      H1141   1.082       .  S
N1142      N1143   1.324       .  A
N1142      C1146   1.343       .  A
N1143      C1144   1.353       .  A
C1144      C1145   1.391       .  A
C1144      H1147   1.082       .  S
C1145      C1146   1.380       .  A
C1145      C2627   1.485       .  S
C1146      H1148   1.082       .  S
N1149      N1150   1.323       .  A
N1149      C1153   1.350       .  A
N1149     Cu1157   2.094       .  S
N1150      C1151   1.342       .  A
N1150     Cu1156   2.068       .  S
C1151      C1152   1.381       .  A
C1151      H1154   1.082       .  S
C1152      C1153   1.388       .  A
C1152      C1517   1.480       .  S
C1153      H1155   1.082       .  S
Cu1156     N1159   2.067       .  S
Cu1157     N1167   2.094       .  S
Cu1158     N1160   2.064       .  S
Cu1158     N1166   2.065       .  S
N1159      N1160   1.321       .  A
N1159      C1163   1.344       .  A
N1160      C1161   1.343       .  A
C1161      C1162   1.382       .  A
C1161      H1164   1.082       .  S
C1162      C1163   1.383       .  A
C1162      C1524   1.472       .  S
C1163      H1165   1.082       .  S
N1166      N1167   1.323       .  A
N1166      C1170   1.343       .  A
N1167      C1168   1.349       .  A
C1168      C1169   1.387       .  A
C1168      H1171   1.082       .  S
C1169      C1170   1.380       .  A
C1169      C2437   1.477       .  S
C1170      H1172   1.082       .  S
N1173      N1174   1.322       .  A
N1173      C1177   1.351       .  A
N1173     Cu1181   2.097       .  S
N1174      C1175   1.340       .  A
N1174     Cu1180   2.059       .  S
C1175      C1176   1.380       .  A
C1175      H1178   1.082       .  S
C1176      C1177   1.391       .  A
C1176      C2217   1.483       .  S
C1177      H1179   1.082       .  S
Cu1180     N1183   2.058       .  S
Cu1181     N1191   2.098       .  S
Cu1182     N1184   2.068       .  S
Cu1182     N1190   2.069       .  S
N1183      N1184   1.320       .  A
N1183      C1187   1.344       .  A
N1184      C1185   1.344       .  A
C1185      C1186   1.383       .  A
C1185      H1188   1.082       .  S
C1186      C1187   1.381       .  A
C1186      C1504   1.470       .  S
C1187      H1189   1.082       .  S
N1190      N1191   1.324       .  A
N1190      C1194   1.344       .  A
N1191      C1192   1.349       .  A
C1192      C1193   1.386       .  A
C1192      H1195   1.082       .  S
C1193      C1194   1.378       .  A
C1193      C2477   1.473       .  S
C1194      H1196   1.082       .  S
N1197      N1198   1.325       .  A
N1197      C1201   1.352       .  A
N1197     Cu1205   2.113       .  S
N1198      C1199   1.343       .  A
N1198     Cu1204   2.067       .  S
C1199      C1200   1.380       .  A
C1199      H1202   1.082       .  S
C1200      C1201   1.390       .  A
C1200      C2224   1.483       .  S
C1201      H1203   1.082       .  S
Cu1204     N1207   2.066       .  S
Cu1205     N1215   2.112       .  S
Cu1206     N1208   2.064       .  S
Cu1206     N1214   2.065       .  S
N1207      N1208   1.320       .  A
N1207      C1211   1.344       .  A
N1208      C1209   1.344       .  A
C1209      C1210   1.382       .  A
C1209      H1212   1.082       .  S
C1210      C1211   1.383       .  A
C1210      C1497   1.471       .  S
C1211      H1213   1.082       .  S
N1214      N1215   1.323       .  A
N1214      C1218   1.341       .  A
N1215      C1216   1.354       .  A
C1216      C1217   1.394       .  A
C1216      H1219   1.082       .  S
C1217      C1218   1.382       .  A
C1217      C2447   1.491       .  S
C1218      H1220   1.081       .  S
C1221      C1222   1.413       .  A
C1221      C1226   1.415       .  A
C1221      C1527   1.484       .  S
C1222      C1223   1.416       .  A
C1222      C1547   1.492       .  S
C1223      C1224   1.418       .  A
C1223      C1567   1.486       .  S
C1224      C1225   1.415       .  A
C1224      C1557   1.490       .  S
C1225      C1226   1.414       .  A
C1225      C1507   1.487       .  S
C1226      C1494   1.487       .  S
C1227      C1228   1.415       .  A
C1227      C1232   1.406   1_655  A
C1227      C1514   1.482       .  S
C1228      C1229   1.402   1_655  A
C1228      C1534   1.488       .  S
C1229      C1230   1.405       .  A
C1229      H1234   1.084       .  S
C1230      C1231   1.420       .  A
C1230      C1474   1.483       .  S
C1231      C1232   1.407       .  A
C1231      C1487   1.497       .  S
C1232      H1233   1.084       .  S
N1235      N1236   1.324       .  A
N1235      C1239   1.350       .  A
N1235     Cu1243   2.097       .  S
N1236      C1237   1.342       .  A
N1236     Cu1242   2.061       .  S
C1237      C1238   1.377       .  A
C1237      H1240   1.082       .  S
C1238      C1239   1.386       .  A
C1238      C2707   1.472       .  S
C1239      H1241   1.082       .  S
Cu1242     N1245   2.060       .  S
Cu1243     N1253   2.098       .  S
Cu1244     N1246   2.056       .  S
Cu1244     N1252   2.057       .  S
N1245      N1246   1.319       .  A
N1245      C1249   1.342       .  A
N1246      C1247   1.343       .  A
C1247      C1248   1.383       .  A
C1247      H1250   1.082       .  S
C1248      C1249   1.384       .  A
C1248      C1464   1.473       .  S
C1249      H1251   1.082       .  S
N1252      N1253   1.324       .  A
N1252      C1256   1.342       .  A
N1253      C1254   1.350       .  A
C1254      C1255   1.387       .  A
C1254      H1257   1.082       .  S
C1255      C1256   1.376       .  A
C1255      C1804   1.472       .  S
C1256      H1258   1.082       .  S
N1259      N1260   1.324       .  A
N1259      C1263   1.353       .  A
N1259     Cu1267   2.110       .  S
N1260      C1261   1.341       .  A
N1260     Cu1266   2.062       .  S
C1261      C1262   1.379       .  A
C1261      H1264   1.082       .  S
C1262      C1263   1.391       .  A
C1262      C2494   1.482       .  S
C1263      H1265   1.082       .  S
Cu1266     N1269   2.062       .  S
Cu1267     N1277   2.111       .  S
Cu1268     N1270   2.066       .  S
Cu1268     N1276   2.067       .  S
N1269      N1270   1.320       .  A
N1269      C1273   1.344       .  A
N1270      C1271   1.345       .  A
C1271      C1272   1.382       .  A
C1271      H1274   1.082       .  S
C1272      C1273   1.381       .  A
C1272      C1454   1.468       .  S
C1273      H1275   1.082       .  S
N1276      N1277   1.324       .  A
N1276      C1280   1.342       .  A
N1277      C1278   1.352       .  A
C1278      C1279   1.393       .  A
C1278      H1281   1.082       .  S
C1279      C1280   1.381       .  A
C1279      C1797   1.488       .  S
C1280      H1282   1.082       .  S
N1283      N1284   1.323       .  A
N1283      C1287   1.349       .  A
N1283     Cu1291   2.096       .  S
N1284      C1285   1.343       .  A
N1284     Cu1290   2.069       .  S
C1285      C1286   1.381       .  A
C1285      H1288   1.082       .  S
C1286      C1287   1.388       .  A
C1286      C1437   1.481       .  S
C1287      H1289   1.082       .  S
Cu1290     N1293   2.068       .  S
Cu1291     N1301   2.096       .  S
Cu1292     N1294   2.074       .  S
Cu1292     N1300   2.074       .  S
N1293      N1294   1.321       .  A
N1293      C1297   1.346       .  A
N1294      C1295   1.345       .  A
C1295      C1296   1.383       .  A
C1295      H1298   1.082       .  S
C1296      C1297   1.383       .  A
C1296      C1447   1.474       .  S
C1297      H1299   1.082       .  S
N1300      N1301   1.324       .  A
N1300      C1304   1.343       .  A
N1301      C1302   1.351       .  A
C1302      C1303   1.387       .  A
C1302      H1305   1.082       .  S
C1303      C1304   1.380       .  A
C1303      C2757   1.479       .  S
C1304      H1306   1.082       .  S
N1307      N1308   1.322       .  A
N1307      C1311   1.351       .  A
N1307     Cu1315   2.103       .  S
N1308      C1309   1.341       .  A
N1308     Cu1314   2.057       .  S
C1309      C1310   1.379       .  A
C1309      H1312   1.082       .  S
C1310      C1311   1.391       .  A
C1310      C2764   1.481       .  S
C1311      H1313   1.082       .  S
Cu1314     N1317   2.057       .  S
Cu1315     N1325   2.104       .  S
Cu1316     N1318   2.072       .  S
Cu1316     N1324   2.074       .  S
N1317      N1318   1.320       .  A
N1317      C1321   1.341       .  A
N1318      C1319   1.346       .  A
C1319      C1320   1.384       .  A
C1319      H1322   1.082       .  S
C1320      C1321   1.381       .  A
C1320      C1424   1.471       .  S
C1321      H1323   1.082       .  S
N1324      N1325   1.325       .  A
N1324      C1328   1.345       .  A
N1325      C1326   1.350       .  A
C1326      C1327   1.387       .  A
C1326      H1329   1.082       .  S
C1327      C1328   1.380       .  A
C1327      C1484   1.479       .  S
C1328      H1330   1.082       .  S
N1331      N1332   1.324       .  A
N1331      C1335   1.349       .  A
N1331     Cu1339   2.096       .  S
N1332      C1333   1.342       .  A
N1332     Cu1338   2.070       .  S
C1333      C1334   1.381       .  A
C1333      H1336   1.082       .  S
C1334      C1335   1.388       .  A
C1334      C1477   1.481       .  S
C1335      H1337   1.082       .  S
Cu1338     N1341   2.069       .  S
Cu1339     N1349   2.096       .  S
Cu1340     N1342   2.065       .  S
Cu1340     N1348   2.065       .  S
N1341      N1342   1.320       .  A
N1341      C1345   1.346       .  A
N1342      C1343   1.344       .  A
C1343      C1344   1.380       .  A
C1343      H1346   1.082       .  S
C1344      C1345   1.382       .  A
C1344      C1414   1.468       .  S
C1345      H1347   1.082       .  S
N1348      N1349   1.322       .  A
N1348      C1352   1.341       .  A
N1349      C1350   1.351       .  A
C1350      C1351   1.392       .  A
C1350      H1353   1.081       .  S
C1351      C1352   1.382       .  A
C1351      C2697   1.485       .  S
C1352      H1354   1.082       .  S
N1355      N1356   1.324       .  A
N1355      C1359   1.353       .  A
N1355     Cu1363   2.116       .  S
N1356      C1357   1.342       .  A
N1356     Cu1362   2.064       .  S
C1357      C1358   1.380       .  A
C1357      H1360   1.082       .  S
C1358      C1359   1.393       .  A
C1358      C1394   1.487       .  S
C1359      H1361   1.082       .  S
Cu1362     N1365   2.063       .  S
Cu1363     N1373   2.116       .  S
Cu1364     N1366   2.058       .  S
Cu1364     N1372   2.059       .  S
N1365      N1366   1.319       .  A
N1365      C1369   1.344       .  A
N1366      C1367   1.343       .  A
C1367      C1368   1.382       .  A
C1367      H1370   1.082       .  S
C1368      C1369   1.384       .  A
C1368      C1407   1.472       .  S
C1369      H1371   1.082       .  S
N1372      N1373   1.323       .  A
N1372      C1376   1.341       .  A
N1373      C1374   1.353       .  A
C1374      C1375   1.394       .  A
C1374      H1377   1.082       .  S
C1375      C1376   1.380       .  A
C1375      C2507   1.488       .  S
C1376      H1378   1.082       .  S
C1379      C1380   1.419       .  A
C1379      C1384   1.419       .  A
C1379      C1404   1.492       .  S
C1380      C1381   1.419       .  A
C1380      C1457   1.494       .  S
C1381      C1382   1.419       .  A
C1381      C1467   1.490       .  S
C1382      C1383   1.419       .  A
C1382      C1417   1.496       .  S
C1383      C1384   1.419       .  A
C1383      C1427   1.492       .  S
C1384      C1444   1.495       .  S
C1385      C1386   1.419       .  A
C1385      C1390   1.406       .  A
C1385      C2057   1.484       .  S
C1386      C1387   1.405   1_556  A
C1386      C2037   1.494       .  S
C1387      C1388   1.403       .  A
C1387      H1392   1.084       .  S
C1388      C1389   1.416       .  A
C1388      C1434   1.482       .  S
C1389      C1390   1.406   1_554  A
C1389      C1397   1.489       .  S
C1390      H1391   1.084       .  S
C1393      C1394   1.405       .  A
C1393      C1398   1.405       .  A
C1393      H1400   1.083       .  S
C1394      C1395   1.414       .  A
C1395      C1396   1.400       .  A
C1395     Br1402   1.920       .  S
C1396      C1397   1.401       .  A
C1396      H1401   1.082       .  S
C1397      C1398   1.410       .  A
C1398     Br1399   1.917       .  S
C1403      C1404   1.405       .  A
C1403      C1408   1.395       .  A
C1403      H1410   1.083       .  S
C1404      C1405   1.410       .  A
C1405      C1406   1.397       .  A
C1405     Br1412   1.913       .  S
C1406      C1407   1.402       .  A
C1406      H1411   1.084       .  S
C1407      C1408   1.407       .  A
C1408     Br1409   1.918       .  S
C1413      C1414   1.399       .  A
C1413      C1418   1.399       .  A
C1413      H1420   1.084       .  S
C1414      C1415   1.404       .  A
C1415      C1416   1.398       .  A
C1415     Br1422   1.917       .  S
C1416      C1417   1.407       .  A
C1416      H1421   1.083       .  S
C1417      C1418   1.412       .  A
C1418     Br1419   1.913       .  S
C1423      C1424   1.401       .  A
C1423      C1428   1.395       .  A
C1423      H1430   1.084       .  S
C1424      C1425   1.407       .  A
C1425      C1426   1.397       .  A
C1425     Br1432   1.918       .  S
C1426      C1427   1.406       .  A
C1426      H1431   1.083       .  S
C1427      C1428   1.409       .  A
C1428     Br1429   1.913       .  S
C1433      C1434   1.401       .  A
C1433      C1438   1.399       .  A
C1433      H1440   1.083       .  S
C1434      C1435   1.407       .  A
C1435      C1436   1.402       .  A
C1435     Br1442   1.917       .  S
C1436      C1437   1.405       .  A
C1436      H1441   1.083       .  S
C1437      C1438   1.412       .  A
C1438     Br1439   1.919       .  S
C1443      C1444   1.406       .  A
C1443      C1448   1.399       .  A
C1443      H1450   1.083       .  S
C1444      C1445   1.411       .  A
C1445      C1446   1.398       .  A
C1445     Br1452   1.914       .  S
C1446      C1447   1.401       .  A
C1446      H1451   1.084       .  S
C1447      C1448   1.408       .  A
C1448     Br1449   1.918       .  S
C1453      C1454   1.400       .  A
C1453      C1458   1.398       .  A
C1453      H1460   1.084       .  S
C1454      C1455   1.405       .  A
C1455      C1456   1.396       .  A
C1455     Br1462   1.918       .  S
C1456      C1457   1.406       .  A
C1456      H1461   1.083       .  S
C1457      C1458   1.412       .  A
C1458     Br1459   1.914       .  S
C1463      C1464   1.402       .  A
C1463      C1468   1.395       .  A
C1463      H1470   1.083       .  S
C1464      C1465   1.410       .  A
C1465      C1466   1.395       .  A
C1465     Br1472   1.919       .  S
C1466      C1467   1.404       .  A
C1466      H1471   1.083       .  S
C1467      C1468   1.409       .  A
C1468     Br1469   1.913       .  S
C1473      C1474   1.404       .  A
C1473      C1478   1.402       .  A
C1473      H1480   1.084       .  S
C1474      C1475   1.407       .  A
C1475      C1476   1.397       .  A
C1475     Br1482   1.917       .  S
C1476      C1477   1.405       .  A
C1476      H1481   1.083       .  S
C1477      C1478   1.411       .  A
C1478     Br1479   1.918       .  S
C1483      C1484   1.401       .  A
C1483      C1488   1.402       .  A
C1483      H1490   1.084       .  S
C1484      C1485   1.407       .  A
C1485      C1486   1.402       .  A
C1485     Br1492   1.917       .  S
C1486      C1487   1.407       .  A
C1486      H1491   1.083       .  S
C1487      C1488   1.416       .  A
C1488     Br1489   1.921       .  S
C1493      C1494   1.403       .  A
C1493      C1498   1.396       .  A
C1493      H1500   1.083       .  S
C1494      C1495   1.408       .  A
C1495      C1496   1.398       .  A
C1495     Br1502   1.912       .  S
C1496      C1497   1.402       .  A
C1496      H1501   1.084       .  S
C1497      C1498   1.407       .  A
C1498     Br1499   1.918       .  S
C1503      C1504   1.402       .  A
C1503      C1508   1.397       .  A
C1503      H1510   1.084       .  S
C1504      C1505   1.407       .  A
C1505      C1506   1.396       .  A
C1505     Br1512   1.918       .  S
C1506      C1507   1.403       .  A
C1506      H1511   1.083       .  S
C1507      C1508   1.407       .  A
C1508     Br1509   1.912       .  S
C1513      C1514   1.401       .  A
C1513      C1518   1.397       .  A
C1513      H1520   1.083       .  S
C1514      C1515   1.408       .  A
C1515      C1516   1.403       .  A
C1515     Br1522   1.918       .  S
C1516      C1517   1.405       .  A
C1516      H1521   1.083       .  S
C1517      C1518   1.411       .  A
C1518     Br1519   1.920       .  S
C1523      C1524   1.402       .  A
C1523      C1528   1.397       .  A
C1523      H1530   1.083       .  S
C1524      C1525   1.409       .  A
C1525      C1526   1.396       .  A
C1525     Br1532   1.919       .  S
C1526      C1527   1.402       .  A
C1526      H1531   1.083       .  S
C1527      C1528   1.408       .  A
C1528     Br1529   1.917       .  S
C1533      C1534   1.401       .  A
C1533      C1538   1.401       .  A
C1533      H1540   1.083       .  S
C1534      C1535   1.410       .  A
C1535      C1536   1.406       .  A
C1535     Br1542   1.918       .  S
C1536      C1537   1.406       .  A
C1536      H1541   1.083       .  S
C1537      C1538   1.413       .  A
C1538     Br1539   1.919       .  S
C1543      C1544   1.403       .  A
C1543      C1548   1.401       .  A
C1543      H1550   1.083       .  S
C1544      C1545   1.407       .  A
C1545      C1546   1.397       .  A
C1545     Br1552   1.918       .  S
C1546      C1547   1.401       .  A
C1546      H1551   1.079       .  S
C1547      C1548   1.410       .  A
C1548     Br1549   1.918       .  S
C1553      C1554   1.400       .  A
C1553      C1558   1.398       .  A
C1553      H1560   1.084       .  S
C1554      C1555   1.403       .  A
C1555      C1556   1.397       .  A
C1555     Br1562   1.917       .  S
C1556      C1557   1.405       .  A
C1556      H1561   1.083       .  S
C1557      C1558   1.409       .  A
C1558     Br1559   1.913       .  S
C1563      C1564   1.403       .  A
C1563      C1568   1.396       .  A
C1563      H1570   1.083       .  S
C1564      C1565   1.411       .  A
C1565      C1566   1.394       .  A
C1565     Br1572   1.920       .  S
C1566      C1567   1.402       .  A
C1566      H1571   1.082       .  S
C1567      C1568   1.409       .  A
C1568     Br1569   1.918       .  S
C1573      C1574   1.404       .  A
C1573      C1578   1.398       .  A
C1573      H1580   1.084       .  S
C1574      C1575   1.409       .  A
C1575      C1576   1.400       .  A
C1575     Br1582   1.917       .  S
C1576      C1577   1.402       .  A
C1576      H1581   1.083       .  S
C1577      C1578   1.408       .  A
C1578     Br1579   1.919       .  S
C1583      C1584   1.404       .  A
C1583      C1588   1.404       .  A
C1583      H1590   1.083       .  S
C1584      C1585   1.408       .  A
C1585      C1586   1.397       .  A
C1585     Br1592   1.919       .  S
C1586      C1587   1.401       .  A
C1586      H1591   1.083       .  S
C1587      C1588   1.408       .  A
C1588     Br1589   1.917       .  S
C1593      C1594   1.403       .  A
C1593      C1598   1.396       .  A
C1593      H1600   1.084       .  S
C1594      C1595   1.411       .  A
C1595      C1596   1.402       .  A
C1595     Br1602   1.918       .  S
C1596      C1597   1.402       .  A
C1596      H1601   1.083       .  S
C1597      C1598   1.407       .  A
C1598     Br1599   1.920       .  S
C1603      C1604   1.404       .  A
C1603      C1608   1.397       .  A
C1603      H1610   1.083       .  S
C1604      C1605   1.411       .  A
C1605      C1606   1.397       .  A
C1605     Br1612   1.918       .  S
C1606      C1607   1.400       .  A
C1606      H1611   1.083       .  S
C1607      C1608   1.408       .  A
C1608     Br1609   1.918       .  S
C1613      C1614   1.400       .  A
C1613      C1618   1.395       .  A
C1613      H1620   1.083       .  S
C1614      C1615   1.407       .  A
C1615      C1616   1.401       .  A
C1615     Br1622   1.917       .  S
C1616      C1617   1.404       .  A
C1616      H1621   1.083       .  S
C1617      C1618   1.410       .  A
C1618     Br1619   1.920       .  S
C1623      C1624   1.402       .  A
C1623      C1628   1.400       .  A
C1623      H1630   1.083       .  S
C1624      C1625   1.407       .  A
C1625      C1626   1.394       .  A
C1625     Br1632   1.919       .  S
C1626      C1627   1.399       .  A
C1626      H1631   1.079       .  S
C1627      C1628   1.409       .  A
C1628     Br1629   1.918       .  S
C1633      C1634   1.399       .  A
C1633      C1638   1.394       .  A
C1633      H1640   1.081       .  S
C1634      C1635   1.407       .  A
C1635      C1636   1.397       .  A
C1635     Br1642   1.918       .  S
C1636      C1637   1.401       .  A
C1636      H1641   1.083       .  S
C1637      C1638   1.410       .  A
C1638     Br1639   1.919       .  S
C1643      C1644   1.402       .  A
C1643      C1648   1.401       .  A
C1643      H1650   1.083       .  S
C1644      C1645   1.406       .  A
C1645      C1646   1.397       .  A
C1645     Br1652   1.918       .  S
C1646      C1647   1.404       .  A
C1646      H1651   1.082       .  S
C1647      C1648   1.410       .  A
C1648     Br1649   1.916       .  S
C1653      C1654   1.404       .  A
C1653      C1658   1.398       .  A
C1653      H1660   1.083       .  S
C1654      C1655   1.410       .  A
C1655      C1656   1.399       .  A
C1655     Br1662   1.918       .  S
C1656      C1657   1.402       .  A
C1656      H1661   1.083       .  S
C1657      C1658   1.408       .  A
C1658     Br1659   1.915       .  S
C1663      C1664   1.404       .  A
C1663      C1668   1.399       .  A
C1663      H1670   1.083       .  S
C1664      C1665   1.413       .  A
C1665      C1666   1.398       .  A
C1665     Br1672   1.919       .  S
C1666      C1667   1.399       .  A
C1666      H1671   1.081       .  S
C1667      C1668   1.408       .  A
C1668     Br1669   1.919       .  S
C1673      C1674   1.402       .  A
C1673      C1678   1.400       .  A
C1673      H1680   1.082       .  S
C1674      C1675   1.415       .  A
C1675      C1676   1.404       .  A
C1675     Br1682   1.921       .  S
C1676      C1677   1.408       .  A
C1676      H1681   1.082       .  S
C1677      C1678   1.421       .  A
C1678     Br1679   1.921       .  S
C1683      C1684   1.405       .  A
C1683      C1688   1.404       .  A
C1683      H1690   1.083       .  S
C1684      C1685   1.407       .  A
C1685      C1686   1.398       .  A
C1685     Br1692   1.920       .  S
C1686      C1687   1.407       .  A
C1686      H1691   1.084       .  S
C1687      C1688   1.411       .  A
C1688     Br1689   1.917       .  S
C1693      C1694   1.405       .  A
C1693      C1698   1.406       .  A
C1693      H1700   1.083       .  S
C1694      C1695   1.410       .  A
C1695      C1696   1.400       .  A
C1695     Br1702   1.919       .  S
C1696      C1697   1.402       .  A
C1696      H1701   1.083       .  S
C1697      C1698   1.409       .  A
C1698     Br1699   1.916       .  S
C1703      C1704   1.405       .  A
C1703      C1708   1.396       .  A
C1703      H1710   1.084       .  S
C1704      C1705   1.413       .  A
C1705      C1706   1.403       .  A
C1705     Br1712   1.918       .  S
C1706      C1707   1.403       .  A
C1706      H1711   1.083       .  S
C1707      C1708   1.406       .  A
C1708     Br1709   1.918       .  S
C1713      C1714   1.404       .  A
C1713      C1718   1.404       .  A
C1713      H1720   1.089       .  S
C1714      C1715   1.408       .  A
C1715      C1716   1.397       .  A
C1715     Br1722   1.919       .  S
C1716      C1717   1.402       .  A
C1716      H1721   1.086       .  S
C1717      C1718   1.409       .  A
C1718     Br1719   1.916       .  S
C1723      C1724   1.400       .  A
C1723      C1728   1.398       .  A
C1723      H1730   1.084       .  S
C1724      C1725   1.404       .  A
C1725      C1726   1.395       .  A
C1725     Br1732   1.917       .  S
C1726      C1727   1.405       .  A
C1726      H1731   1.083       .  S
C1727      C1728   1.411       .  A
C1728     Br1729   1.914       .  S
C1733      C1734   1.405       .  A
C1733      C1738   1.398       .  A
C1733      H1740   1.084       .  S
C1734      C1735   1.413       .  A
C1735      C1736   1.404       .  A
C1735     Br1742   1.918       .  S
C1736      C1737   1.403       .  A
C1736      H1741   1.084       .  S
C1737      C1738   1.406       .  A
C1738     Br1739   1.918       .  S
C1743      C1744   1.406       .  A
C1743      C1748   1.399       .  A
C1743      H1750   1.083       .  S
C1744      C1745   1.411       .  A
C1745      C1746   1.398       .  A
C1745     Br1752   1.913       .  S
C1746      C1747   1.402       .  A
C1746      H1751   1.083       .  S
C1747      C1748   1.407       .  A
C1748     Br1749   1.918       .  S
C1753      C1754   1.400       .  A
C1753      C1758   1.396       .  A
C1753      H1760   1.084       .  S
C1754      C1755   1.404       .  A
C1755      C1756   1.395       .  A
C1755     Br1762   1.917       .  S
C1756      C1757   1.405       .  A
C1756      H1761   1.083       .  S
C1757      C1758   1.410       .  A
C1758     Br1759   1.915       .  S
C1763      C1764   1.405       .  A
C1763      C1768   1.397       .  A
C1763      H1770   1.083       .  S
C1764      C1765   1.412       .  A
C1765      C1766   1.400       .  A
C1765     Br1772   1.913       .  S
C1766      C1767   1.402       .  A
C1766      H1771   1.084       .  S
C1767      C1768   1.407       .  A
C1768     Br1769   1.918       .  S
C1773      C1774   1.400       .  A
C1773      C1778   1.398       .  A
C1773      H1780   1.084       .  S
C1774      C1775   1.405       .  A
C1775      C1776   1.397       .  A
C1775     Br1782   1.917       .  S
C1776      C1777   1.406       .  A
C1776      H1781   1.083       .  S
C1777      C1778   1.411       .  A
C1778     Br1779   1.915       .  S
C1783      C1784   1.404       .  A
C1783      C1788   1.401       .  A
C1783      H1790   1.083       .  S
C1784      C1785   1.408       .  A
C1785      C1786   1.394       .  A
C1785     Br1792   1.918       .  S
C1786      C1787   1.403       .  A
C1786      H1791   1.083       .  S
C1787      C1788   1.411       .  A
C1788     Br1789   1.915       .  S
C1793      C1794   1.401       .  A
C1793      C1798   1.401       .  A
C1793      H1800   1.084       .  S
C1794      C1795   1.410       .  A
C1795      C1796   1.403       .  A
C1795     Br1802   1.918       .  S
C1796      C1797   1.405       .  A
C1796      H1801   1.083       .  S
C1797      C1798   1.416       .  A
C1798     Br1799   1.920       .  S
C1803      C1804   1.399       .  A
C1803      C1808   1.399       .  A
C1803      H1810   1.084       .  S
C1804      C1805   1.408       .  A
C1805      C1806   1.401       .  A
C1805     Br1812   1.918       .  S
C1806      C1807   1.405       .  A
C1806      H1811   1.083       .  S
C1807      C1808   1.414       .  A
C1808     Br1809   1.921       .  S
C1813      C1814   1.405       .  A
C1813      C1818   1.405       .  A
C1813      H1820   1.083       .  S
C1814      C1815   1.406       .  A
C1815      C1816   1.400       .  A
C1815     Br1822   1.918       .  S
C1816      C1817   1.407       .  A
C1816      H1821   1.083       .  S
C1817      C1818   1.412       .  A
C1818     Br1819   1.917       .  S
C1823      C1824   1.404       .  A
C1823      C1828   1.401       .  A
C1823      H1830   1.083       .  S
C1824      C1825   1.416       .  A
C1825      C1826   1.400       .  A
C1825     Br1832   1.923       .  S
C1826      C1827   1.400       .  A
C1826      H1831   1.084       .  S
C1827      C1828   1.408       .  A
C1828     Br1829   1.917       .  S
C1833      C1834   1.403       .  A
C1833      C1838   1.398       .  A
C1833      H1840   1.084       .  S
C1834      C1835   1.408       .  A
C1835      C1836   1.399       .  A
C1835     Br1842   1.918       .  S
C1836      C1837   1.402       .  A
C1836      H1841   1.083       .  S
C1837      C1838   1.406       .  A
C1838     Br1839   1.919       .  S
C1843      C1844   1.404       .  A
C1843      C1848   1.403       .  A
C1843      H1850   1.083       .  S
C1844      C1845   1.410       .  A
C1845      C1846   1.400       .  A
C1845     Br1852   1.919       .  S
C1846      C1847   1.402       .  A
C1846      H1851   1.083       .  S
C1847      C1848   1.408       .  A
C1848     Br1849   1.916       .  S
C1853      C1854   1.406       .  A
C1853      C1858   1.405       .  A
C1853      H1860   1.083       .  S
C1854      C1855   1.412       .  A
C1855      C1856   1.398       .  A
C1855     Br1862   1.920       .  S
C1856      C1857   1.401       .  A
C1856      H1861   1.083       .  S
C1857      C1858   1.409       .  A
C1858     Br1859   1.917       .  S
C1863      C1864   1.403       .  A
C1863      C1868   1.397       .  A
C1863      H1870   1.083       .  S
C1864      C1865   1.410       .  A
C1865      C1866   1.397       .  A
C1865     Br1872   1.919       .  S
C1866      C1867   1.401       .  A
C1866      H1871   1.082       .  S
C1867      C1868   1.407       .  A
C1868     Br1869   1.918       .  S
C1873      C1874   1.404       .  A
C1873      C1878   1.403       .  A
C1873      H1880   1.083       .  S
C1874      C1875   1.414       .  A
C1875      C1876   1.398       .  A
C1875     Br1882   1.920       .  S
C1876      C1877   1.400       .  A
C1876      H1881   1.082       .  S
C1877      C1878   1.411       .  A
C1878     Br1879   1.918       .  S
C1883      C1884   1.402       .  A
C1883      C1888   1.397       .  A
C1883      H1890   1.083       .  S
C1884      C1885   1.410       .  A
C1885      C1886   1.395       .  A
C1885     Br1892   1.919       .  S
C1886      C1887   1.400       .  A
C1886      H1891   1.082       .  S
C1887      C1888   1.408       .  A
C1888     Br1889   1.918       .  S
C1893      C1894   1.403       .  A
C1893      C1898   1.396       .  A
C1893      H1900   1.083       .  S
C1894      C1895   1.409       .  A
C1895      C1896   1.397       .  A
C1895     Br1902   1.918       .  S
C1896      C1897   1.403       .  A
C1896      H1901   1.083       .  S
C1897      C1898   1.407       .  A
C1898     Br1899   1.912       .  S
C1903      C1904   1.402       .  A
C1903      C1908   1.395       .  A
C1903      H1910   1.082       .  S
C1904      C1905   1.410       .  A
C1905      C1906   1.399       .  A
C1905     Br1912   1.918       .  S
C1906      C1907   1.402       .  A
C1906      H1911   1.083       .  S
C1907      C1908   1.408       .  A
C1908     Br1909   1.919       .  S
C1913      C1914   1.405       .  A
C1913      C1918   1.400       .  A
C1913      H1920   1.083       .  S
C1914      C1915   1.413       .  A
C1915      C1916   1.400       .  A
C1915     Br1922   1.920       .  S
C1916      C1917   1.401       .  A
C1916      H1921   1.084       .  S
C1917      C1918   1.407       .  A
C1918     Br1919   1.917       .  S
C1923      C1924   1.403       .  A
C1923      C1928   1.397       .  A
C1923      H1930   1.083       .  S
C1924      C1925   1.411       .  A
C1925      C1926   1.396       .  A
C1925     Br1932   1.919       .  S
C1926      C1927   1.399       .  A
C1926      H1931   1.080       .  S
C1927      C1928   1.407       .  A
C1928     Br1929   1.919       .  S
C1933      C1934   1.407       .  A
C1933      C1938   1.399       .  A
C1933      H1940   1.083       .  S
C1934      C1935   1.413       .  A
C1935      C1936   1.403       .  A
C1935     Br1942   1.917       .  S
C1936      C1937   1.403       .  A
C1936      H1941   1.083       .  S
C1937      C1938   1.406       .  A
C1938     Br1939   1.918       .  S
C1943      C1944   1.403       .  A
C1943      C1948   1.397       .  A
C1943      H1950   1.083       .  S
C1944      C1945   1.411       .  A
C1945      C1946   1.396       .  A
C1945     Br1952   1.919       .  S
C1946      C1947   1.400       .  A
C1946      H1951   1.083       .  S
C1947      C1948   1.407       .  A
C1948     Br1949   1.917       .  S
C1953      C1954   1.405       .  A
C1953      C1958   1.404       .  A
C1953      H1960   1.083       .  S
C1954      C1955   1.412       .  A
C1955      C1956   1.398       .  A
C1955     Br1962   1.920       .  S
C1956      C1957   1.400       .  A
C1956      H1961   1.083       .  S
C1957      C1958   1.408       .  A
C1958     Br1959   1.917       .  S
C1963      C1964   1.404       .  A
C1963      C1968   1.405       .  A
C1963      H1970   1.083       .  S
C1964      C1965   1.409       .  A
C1965      C1966   1.399       .  A
C1965     Br1972   1.915       .  S
C1966      C1967   1.403       .  A
C1966      H1971   1.084       .  S
C1967      C1968   1.411       .  A
C1968     Br1969   1.917       .  S
C1973      C1974   1.400       .  A
C1973      C1978   1.398       .  A
C1973      H1980   1.084       .  S
C1974      C1975   1.405       .  A
C1975      C1976   1.395       .  A
C1975     Br1982   1.918       .  S
C1976      C1977   1.402       .  A
C1976      H1981   1.082       .  S
C1977      C1978   1.410       .  A
C1978     Br1979   1.918       .  S
C1983      C1984   1.403       .  A
C1983      C1988   1.398       .  A
C1983      H1990   1.083       .  S
C1984      C1985   1.408       .  A
C1985      C1986   1.393       .  A
C1985     Br1992   1.919       .  S
C1986      C1987   1.399       .  A
C1986      H1991   1.080       .  S
C1987      C1988   1.408       .  A
C1988     Br1989   1.919       .  S
C1993      C1994   1.399       .  A
C1993      C1998   1.397       .  A
C1993      H2000   1.084       .  S
C1994      C1995   1.407       .  A
C1995      C1996   1.402       .  A
C1995     Br2002   1.917       .  S
C1996      C1997   1.404       .  A
C1996      H2001   1.083       .  S
C1997      C1998   1.411       .  A
C1998     Br1999   1.916       .  S
C2003      C2004   1.402       .  A
C2003      C2008   1.396       .  A
C2003      H2010   1.084       .  S
C2004      C2005   1.407       .  A
C2005      C2006   1.394       .  A
C2005     Br2012   1.919       .  S
C2006      C2007   1.402       .  A
C2006      H2011   1.083       .  S
C2007      C2008   1.407       .  A
C2008     Br2009   1.912       .  S
C2013      C2014   1.405       .  A
C2013      C2018   1.406       .  A
C2013      H2020   1.083       .  S
C2014      C2015   1.415       .  A
C2015      C2016   1.398       .  A
C2015     Br2022   1.920       .  S
C2016      C2017   1.402       .  A
C2016      H2021   1.083       .  S
C2017      C2018   1.413       .  A
C2018     Br2019   1.919       .  S
C2023      C2024   1.402       .  A
C2023      C2028   1.397       .  A
C2023      H2030   1.084       .  S
C2024      C2025   1.409       .  A
C2025      C2026   1.397       .  A
C2025     Br2032   1.919       .  S
C2026      C2027   1.402       .  A
C2026      H2031   1.082       .  S
C2027      C2028   1.408       .  A
C2028     Br2029   1.917       .  S
C2033      C2034   1.400       .  A
C2033      C2038   1.401       .  A
C2033      H2040   1.083       .  S
C2034      C2035   1.408       .  A
C2035      C2036   1.403       .  A
C2035     Br2042   1.917       .  S
C2036      C2037   1.406       .  A
C2036      H2041   1.083       .  S
C2037      C2038   1.415       .  A
C2038     Br2039   1.921       .  S
C2043      C2044   1.404       .  A
C2043      C2048   1.397       .  A
C2043      H2050   1.083       .  S
C2044      C2045   1.410       .  A
C2045      C2046   1.396       .  A
C2045     Br2052   1.919       .  S
C2046      C2047   1.400       .  A
C2046      H2051   1.082       .  S
C2047      C2048   1.406       .  A
C2048     Br2049   1.919       .  S
C2053      C2054   1.405       .  A
C2053      C2058   1.397       .  A
C2053      H2060   1.083       .  S
C2054      C2055   1.412       .  A
C2055      C2056   1.405       .  A
C2055     Br2062   1.918       .  S
C2056      C2057   1.404       .  A
C2056      H2061   1.083       .  S
C2057      C2058   1.406       .  A
C2058     Br2059   1.916       .  S
C2063      C2064   1.402       .  A
C2063      C2068   1.399       .  A
C2063      H2070   1.083       .  S
C2064      C2065   1.407       .  A
C2065      C2066   1.394       .  A
C2065     Br2072   1.919       .  S
C2066      C2067   1.400       .  A
C2066      H2071   1.080       .  S
C2067      C2068   1.408       .  A
C2068     Br2069   1.918       .  S
C2073      C2074   1.399       .  A
C2073      C2078   1.397       .  A
C2073      H2080   1.084       .  S
C2074      C2075   1.405       .  A
C2075      C2076   1.393       .  A
C2075     Br2082   1.918       .  S
C2076      C2077   1.402       .  A
C2076      H2081   1.082       .  S
C2077      C2078   1.411       .  A
C2078     Br2079   1.917       .  S
C2083      C2084   1.401       .  A
C2083      C2088   1.400       .  A
C2083      H2090   1.084       .  S
C2084      C2085   1.407       .  A
C2085      C2086   1.398       .  A
C2085     Br2092   1.918       .  S
C2086      C2087   1.403       .  A
C2086      H2091   1.083       .  S
C2087      C2088   1.409       .  A
C2088     Br2089   1.912       .  S
C2093      C2094   1.405       .  A
C2093      C2098   1.396       .  A
C2093      H2100   1.084       .  S
C2094      C2095   1.410       .  A
C2095      C2096   1.403       .  A
C2095     Br2102   1.917       .  S
C2096      C2097   1.404       .  A
C2096      H2101   1.083       .  S
C2097      C2098   1.406       .  A
C2098     Br2099   1.918       .  S
C2103      C2104   1.401       .  A
C2103      C2108   1.395       .  A
C2103      H2110   1.084       .  S
C2104      C2105   1.407       .  A
C2105      C2106   1.394       .  A
C2105     Br2112   1.919       .  S
C2106      C2107   1.402       .  A
C2106      H2111   1.082       .  S
C2107      C2108   1.409       .  A
C2108     Br2109   1.917       .  S
C2113      C2114   1.400       .  A
C2113      C2118   1.399       .  A
C2113      H2120   1.084       .  S
C2114      C2115   1.406       .  A
C2115      C2116   1.399       .  A
C2115     Br2122   1.918       .  S
C2116      C2117   1.406       .  A
C2116      H2121   1.083       .  S
C2117      C2118   1.415       .  A
C2118     Br2119   1.922       .  S
C2123      C2124   1.399       .  A
C2123      C2128   1.397       .  A
C2123      H2130   1.084       .  S
C2124      C2125   1.403       .  A
C2125      C2126   1.392       .  A
C2125     Br2132   1.918       .  S
C2126      C2127   1.402       .  A
C2126      H2131   1.082       .  S
C2127      C2128   1.411       .  A
C2128     Br2129   1.918       .  S
C2133      C2134   1.406       .  A
C2133      C2138   1.404       .  A
C2133      H2140   1.083       .  S
C2134      C2135   1.413       .  A
C2135      C2136   1.395       .  A
C2135     Br2142   1.921       .  S
C2136      C2137   1.401       .  A
C2136      H2141   1.083       .  S
C2137      C2138   1.410       .  A
C2138     Br2139   1.918       .  S
C2143      C2144   1.404       .  A
C2143      C2148   1.396       .  A
C2143      H2150   1.083       .  S
C2144      C2145   1.410       .  A
C2145      C2146   1.396       .  A
C2145     Br2152   1.919       .  S
C2146      C2147   1.401       .  A
C2146      H2151   1.082       .  S
C2147      C2148   1.407       .  A
C2148     Br2149   1.918       .  S
C2153      C2154   1.404       .  A
C2153      C2158   1.402       .  A
C2153      H2160   1.083       .  S
C2154      C2155   1.410       .  A
C2155      C2156   1.405       .  A
C2155     Br2162   1.918       .  S
C2156      C2157   1.405       .  A
C2156      H2161   1.083       .  S
C2157      C2158   1.410       .  A
C2158     Br2159   1.919       .  S
C2163      C2164   1.403       .  A
C2163      C2168   1.398       .  A
C2163      H2170   1.083       .  S
C2164      C2165   1.409       .  A
C2165      C2166   1.399       .  A
C2165     Br2172   1.911       .  S
C2166      C2167   1.402       .  A
C2166      H2171   1.084       .  S
C2167      C2168   1.408       .  A
C2168     Br2169   1.918       .  S
C2173      C2174   1.404       .  A
C2173      C2178   1.401       .  A
C2173      H2180   1.084       .  S
C2174      C2175   1.407       .  A
C2175      C2176   1.398       .  A
C2175     Br2182   1.918       .  S
C2176      C2177   1.406       .  A
C2176      H2181   1.083       .  S
C2177      C2178   1.412       .  A
C2178     Br2179   1.918       .  S
C2183      C2184   1.401       .  A
C2183      C2188   1.400       .  A
C2183      H2190   1.084       .  S
C2184      C2185   1.409       .  A
C2185      C2186   1.401       .  A
C2185     Br2192   1.918       .  S
C2186      C2187   1.407       .  A
C2186      H2191   1.083       .  S
C2187      C2188   1.416       .  A
C2188     Br2189   1.922       .  S
C2193      C2194   1.402       .  A
C2193      C2198   1.399       .  A
C2193      H2200   1.083       .  S
C2194      C2195   1.409       .  A
C2195      C2196   1.404       .  A
C2195     Br2202   1.917       .  S
C2196      C2197   1.404       .  A
C2196      H2201   1.083       .  S
C2197      C2198   1.411       .  A
C2198     Br2199   1.919       .  S
C2203      C2204   1.404       .  A
C2203      C2208   1.404       .  A
C2203      H2210   1.083       .  S
C2204      C2205   1.406       .  A
C2205      C2206   1.396       .  A
C2205     Br2212   1.919       .  S
C2206      C2207   1.404       .  A
C2206      H2211   1.084       .  S
C2207      C2208   1.410       .  A
C2208     Br2209   1.917       .  S
C2213      C2214   1.399       .  A
C2213      C2218   1.396       .  A
C2213      H2220   1.083       .  S
C2214      C2215   1.410       .  A
C2215      C2216   1.403       .  A
C2215     Br2222   1.918       .  S
C2216      C2217   1.405       .  A
C2216      H2221   1.083       .  S
C2217      C2218   1.414       .  A
C2218     Br2219   1.921       .  S
C2223      C2224   1.405       .  A
C2223      C2228   1.404       .  A
C2223      H2230   1.083       .  S
C2224      C2225   1.412       .  A
C2225      C2226   1.400       .  A
C2225     Br2232   1.919       .  S
C2226      C2227   1.402       .  A
C2226      H2231   1.083       .  S
C2227      C2228   1.408       .  A
C2228     Br2229   1.916       .  S
C2233      C2234   1.401       .  A
C2233      C2238   1.402       .  A
C2233      H2240   1.084       .  S
C2234      C2235   1.408       .  A
C2235      C2236   1.400       .  A
C2235     Br2242   1.918       .  S
C2236      C2237   1.405       .  A
C2236      H2241   1.083       .  S
C2237      C2238   1.416       .  A
C2238     Br2239   1.921       .  S
C2243      C2244   1.400       .  A
C2243      C2248   1.399       .  A
C2243      H2250   1.084       .  S
C2244      C2245   1.406       .  A
C2245      C2246   1.398       .  A
C2245     Br2252   1.918       .  S
C2246      C2247   1.403       .  A
C2246      H2251   1.082       .  S
C2247      C2248   1.412       .  A
C2248     Br2249   1.918       .  S
C2253      C2254   1.408       .  A
C2253      C2258   1.400       .  A
C2253      H2260   1.083       .  S
C2254      C2255   1.410       .  A
C2255      C2256   1.401       .  A
C2255     Br2262   1.917       .  S
C2256      C2257   1.403       .  A
C2256      H2261   1.084       .  S
C2257      C2258   1.407       .  A
C2258     Br2259   1.918       .  S
C2263      C2264   1.402       .  A
C2263      C2268   1.397       .  A
C2263      H2270   1.083       .  S
C2264      C2265   1.408       .  A
C2265      C2266   1.397       .  A
C2265     Br2272   1.919       .  S
C2266      C2267   1.404       .  A
C2266      H2271   1.082       .  S
C2267      C2268   1.410       .  A
C2268     Br2269   1.920       .  S
C2273      C2274   1.405       .  A
C2273      C2278   1.405       .  A
C2273      H2280   1.083       .  S
C2274      C2275   1.412       .  A
C2275      C2276   1.398       .  A
C2275     Br2282   1.920       .  S
C2276      C2277   1.402       .  A
C2276      H2281   1.083       .  S
C2277      C2278   1.411       .  A
C2278     Br2279   1.918       .  S
C2283      C2284   1.400       .  A
C2283      C2288   1.398       .  A
C2283      H2290   1.084       .  S
C2284      C2285   1.404       .  A
C2285      C2286   1.398       .  A
C2285     Br2292   1.917       .  S
C2286      C2287   1.406       .  A
C2286      H2291   1.083       .  S
C2287      C2288   1.411       .  A
C2288     Br2289   1.912       .  S
C2293      C2294   1.404       .  A
C2293      C2298   1.405       .  A
C2293      H2300   1.083       .  S
C2294      C2295   1.411       .  A
C2295      C2296   1.397       .  A
C2295     Br2302   1.920       .  S
C2296      C2297   1.400       .  A
C2296      H2301   1.084       .  S
C2297      C2298   1.408       .  A
C2298     Br2299   1.917       .  S
C2303      C2304   1.402       .  A
C2303      C2308   1.396       .  A
C2303      H2310   1.084       .  S
C2304      C2305   1.409       .  A
C2305      C2306   1.396       .  A
C2305     Br2312   1.918       .  S
C2306      C2307   1.402       .  A
C2306      H2311   1.083       .  S
C2307      C2308   1.407       .  A
C2308     Br2309   1.913       .  S
C2313      C2314   1.401       .  A
C2313      C2318   1.401       .  A
C2313      H2320   1.084       .  S
C2314      C2315   1.407       .  A
C2315      C2316   1.400       .  A
C2315     Br2322   1.917       .  S
C2316      C2317   1.405       .  A
C2316      H2321   1.083       .  S
C2317      C2318   1.412       .  A
C2318     Br2319   1.920       .  S
C2323      C2324   1.404       .  A
C2323      C2328   1.399       .  A
C2323      H2330   1.083       .  S
C2324      C2325   1.409       .  A
C2325      C2326   1.395       .  A
C2325     Br2332   1.919       .  S
C2326      C2327   1.401       .  A
C2326      H2331   1.082       .  S
C2327      C2328   1.408       .  A
C2328     Br2329   1.916       .  S
C2333      C2334   1.406       .  A
C2333      C2338   1.402       .  A
C2333      H2340   1.083       .  S
C2334      C2335   1.412       .  A
C2335      C2336   1.396       .  A
C2335     Br2342   1.919       .  S
C2336      C2337   1.401       .  A
C2336      H2341   1.084       .  S
C2337      C2338   1.408       .  A
C2338     Br2339   1.918       .  S
C2343      C2344   1.401       .  A
C2343      C2348   1.399       .  A
C2343      H2350   1.083       .  S
C2344      C2345   1.406       .  A
C2345      C2346   1.398       .  A
C2345     Br2352   1.918       .  S
C2346      C2347   1.403       .  A
C2346      H2351   1.082       .  S
C2347      C2348   1.410       .  A
C2348     Br2349   1.915       .  S
C2353      C2354   1.402       .  A
C2353      C2358   1.402       .  A
C2353      H2360   1.084       .  S
C2354      C2355   1.405       .  A
C2355      C2356   1.397       .  A
C2355     Br2362   1.918       .  S
C2356      C2357   1.407       .  A
C2356      H2361   1.083       .  S
C2357      C2358   1.415       .  A
C2358     Br2359   1.919       .  S
C2363      C2364   1.407       .  A
C2363      C2368   1.400       .  A
C2363      H2370   1.082       .  S
C2364      C2365   1.418       .  A
C2365      C2366   1.400       .  A
C2365     Br2372   1.922       .  S
C2366      C2367   1.399       .  A
C2366      H2371   1.084       .  S
C2367      C2368   1.406       .  A
C2368     Br2369   1.918       .  S
C2373      C2374   1.400       .  A
C2373      C2378   1.396       .  A
C2373      H2380   1.084       .  S
C2374      C2375   1.407       .  A
C2375      C2376   1.403       .  A
C2375     Br2382   1.916       .  S
C2376      C2377   1.405       .  A
C2376      H2381   1.083       .  S
C2377      C2378   1.413       .  A
C2378     Br2379   1.921       .  S
C2383      C2384   1.400       .  A
C2383      C2388   1.399       .  A
C2383      H2390   1.084       .  S
C2384      C2385   1.408       .  A
C2385      C2386   1.405       .  A
C2385     Br2392   1.916       .  S
C2386      C2387   1.406       .  A
C2386      H2391   1.083       .  S
C2387      C2388   1.415       .  A
C2388     Br2389   1.921       .  S
C2393      C2394   1.402       .  A
C2393      C2398   1.402       .  A
C2393      H2400   1.083       .  S
C2394      C2395   1.407       .  A
C2395      C2396   1.397       .  A
C2395     Br2402   1.920       .  S
C2396      C2397   1.403       .  A
C2396      H2401   1.084       .  S
C2397      C2398   1.410       .  A
C2398     Br2399   1.917       .  S
C2403      C2404   1.400       .  A
C2403      C2408   1.399       .  A
C2403      H2410   1.082       .  S
C2404      C2405   1.409       .  A
C2405      C2406   1.406       .  A
C2405     Br2412   1.916       .  S
C2406      C2407   1.406       .  A
C2406      H2411   1.083       .  S
C2407      C2408   1.415       .  A
C2408     Br2409   1.921       .  S
C2413      C2414   1.405       .  A
C2413      C2418   1.399       .  A
C2413      H2420   1.082       .  S
C2414      C2415   1.416       .  A
C2415      C2416   1.398       .  A
C2415     Br2422   1.923       .  S
C2416      C2417   1.399       .  A
C2416      H2421   1.084       .  S
C2417      C2418   1.407       .  A
C2418     Br2419   1.918       .  S
C2423      C2424   1.405       .  A
C2423      C2428   1.405       .  A
C2423      H2430   1.083       .  S
C2424      C2425   1.406       .  A
C2425      C2426   1.398       .  A
C2425     Br2432   1.917       .  S
C2426      C2427   1.405       .  A
C2426      H2431   1.083       .  S
C2427      C2428   1.411       .  A
C2428     Br2429   1.918       .  S
C2433      C2434   1.403       .  A
C2433      C2438   1.397       .  A
C2433      H2440   1.084       .  S
C2434      C2435   1.409       .  A
C2435      C2436   1.403       .  A
C2435     Br2442   1.916       .  S
C2436      C2437   1.404       .  A
C2436      H2441   1.083       .  S
C2437      C2438   1.409       .  A
C2438     Br2439   1.919       .  S
C2443      C2444   1.401       .  A
C2443      C2448   1.398       .  A
C2443      H2450   1.083       .  S
C2444      C2445   1.412       .  A
C2445      C2446   1.407       .  A
C2445     Br2452   1.919       .  S
C2446      C2447   1.407       .  A
C2446      H2451   1.083       .  S
C2447      C2448   1.415       .  A
C2448     Br2449   1.921       .  S
C2453      C2454   1.403       .  A
C2453      C2458   1.400       .  A
C2453      H2460   1.083       .  S
C2454      C2455   1.408       .  A
C2455      C2456   1.403       .  A
C2455     Br2462   1.917       .  S
C2456      C2457   1.403       .  A
C2456      H2461   1.083       .  S
C2457      C2458   1.410       .  A
C2458     Br2459   1.919       .  S
C2463      C2464   1.403       .  A
C2463      C2468   1.403       .  A
C2463      H2470   1.083       .  S
C2464      C2465   1.410       .  A
C2465      C2466   1.399       .  A
C2465     Br2472   1.920       .  S
C2466      C2467   1.402       .  A
C2466      H2471   1.084       .  S
C2467      C2468   1.410       .  A
C2468     Br2469   1.918       .  S
C2473      C2474   1.406       .  A
C2473      C2478   1.402       .  A
C2473      H2480   1.083       .  S
C2474      C2475   1.412       .  A
C2475      C2476   1.399       .  A
C2475     Br2482   1.920       .  S
C2476      C2477   1.400       .  A
C2476      H2481   1.084       .  S
C2477      C2478   1.407       .  A
C2478     Br2479   1.918       .  S
C2483      C2484   1.404       .  A
C2483      C2488   1.403       .  A
C2483      H2490   1.083       .  S
C2484      C2485   1.413       .  A
C2485      C2486   1.398       .  A
C2485     Br2492   1.920       .  S
C2486      C2487   1.400       .  A
C2486      H2491   1.084       .  S
C2487      C2488   1.408       .  A
C2488     Br2489   1.917       .  S
C2493      C2494   1.405       .  A
C2493      C2498   1.404       .  A
C2493      H2500   1.083       .  S
C2494      C2495   1.412       .  A
C2495      C2496   1.398       .  A
C2495     Br2502   1.920       .  S
C2496      C2497   1.401       .  A
C2496      H2501   1.084       .  S
C2497      C2498   1.407       .  A
C2498     Br2499   1.916       .  S
C2503      C2504   1.401       .  A
C2503      C2508   1.399       .  A
C2503      H2510   1.082       .  S
C2504      C2505   1.411       .  A
C2505      C2506   1.405       .  A
C2505     Br2512   1.918       .  S
C2506      C2507   1.405       .  A
C2506      H2511   1.083       .  S
C2507      C2508   1.415       .  A
C2508     Br2509   1.921       .  S
C2513      C2514   1.404       .  A
C2513      C2518   1.402       .  A
C2513      H2520   1.083       .  S
C2514      C2515   1.409       .  A
C2515      C2516   1.399       .  A
C2515     Br2522   1.919       .  S
C2516      C2517   1.402       .  A
C2516      H2521   1.084       .  S
C2517      C2518   1.408       .  A
C2518     Br2519   1.917       .  S
C2523      C2524   1.405       .  A
C2523      C2528   1.398       .  A
C2523      H2530   1.083       .  S
C2524      C2525   1.411       .  A
C2525      C2526   1.403       .  A
C2525     Br2532   1.917       .  S
C2526      C2527   1.403       .  A
C2526      H2531   1.083       .  S
C2527      C2528   1.406       .  A
C2528     Br2529   1.918       .  S
C2533      C2534   1.406       .  A
C2533      C2538   1.400       .  A
C2533      H2540   1.084       .  S
C2534      C2535   1.413       .  A
C2535      C2536   1.403       .  A
C2535     Br2542   1.917       .  S
C2536      C2537   1.402       .  A
C2536      H2541   1.083       .  S
C2537      C2538   1.407       .  A
C2538     Br2539   1.918       .  S
C2543      C2544   1.400       .  A
C2543      C2548   1.397       .  A
C2543      H2550   1.082       .  S
C2544      C2545   1.407       .  A
C2545      C2546   1.402       .  A
C2545     Br2552   1.917       .  S
C2546      C2547   1.404       .  A
C2546      H2551   1.083       .  S
C2547      C2548   1.411       .  A
C2548     Br2549   1.920       .  S
C2553      C2554   1.403       .  A
C2553      C2558   1.402       .  A
C2553      H2560   1.083       .  S
C2554      C2555   1.406       .  A
C2555      C2556   1.398       .  A
C2555     Br2562   1.918       .  S
C2556      C2557   1.405       .  A
C2556      H2561   1.084       .  S
C2557      C2558   1.410       .  A
C2558     Br2559   1.917       .  S
C2563      C2564   1.404       .  A
C2563      C2568   1.401       .  A
C2563      H2570   1.083       .  S
C2564      C2565   1.413       .  A
C2565      C2566   1.401       .  A
C2565     Br2572   1.920       .  S
C2566      C2567   1.401       .  A
C2566      H2571   1.083       .  S
C2567      C2568   1.409       .  A
C2568     Br2569   1.918       .  S
C2573      C2574   1.404       .  A
C2573      C2578   1.403       .  A
C2573      H2580   1.083       .  S
C2574      C2575   1.406       .  A
C2575      C2576   1.398       .  A
C2575     Br2582   1.918       .  S
C2576      C2577   1.407       .  A
C2576      H2581   1.083       .  S
C2577      C2578   1.413       .  A
C2578     Br2579   1.918       .  S
C2583      C2584   1.405       .  A
C2583      C2588   1.400       .  A
C2583      H2590   1.084       .  S
C2584      C2585   1.411       .  A
C2585      C2586   1.405       .  A
C2585     Br2592   1.916       .  S
C2586      C2587   1.403       .  A
C2586      H2591   1.083       .  S
C2587      C2588   1.407       .  A
C2588     Br2589   1.918       .  S
C2593      C2594   1.405       .  A
C2593      C2598   1.407       .  A
C2593      H2600   1.083       .  S
C2594      C2595   1.408       .  A
C2595      C2596   1.398       .  A
C2595     Br2602   1.917       .  S
C2596      C2597   1.403       .  A
C2596      H2601   1.084       .  S
C2597      C2598   1.411       .  A
C2598     Br2599   1.917       .  S
C2603      C2604   1.400       .  A
C2603      C2608   1.397       .  A
C2603      H2610   1.080       .  S
C2604      C2605   1.410       .  A
C2605      C2606   1.407       .  A
C2605     Br2612   1.916       .  S
C2606      C2607   1.405       .  A
C2606      H2611   1.083       .  S
C2607      C2608   1.411       .  A
C2608     Br2609   1.920       .  S
C2613      C2614   1.400       .  A
C2613      C2618   1.398       .  A
C2613      H2620   1.082       .  S
C2614      C2615   1.408       .  A
C2615      C2616   1.407       .  A
C2615     Br2622   1.916       .  S
C2616      C2617   1.407       .  A
C2616      H2621   1.083       .  S
C2617      C2618   1.413       .  A
C2618     Br2619   1.920       .  S
C2623      C2624   1.404       .  A
C2623      C2628   1.406       .  A
C2623      H2630   1.083       .  S
C2624      C2625   1.408       .  A
C2625      C2626   1.399       .  A
C2625     Br2632   1.917       .  S
C2626      C2627   1.404       .  A
C2626      H2631   1.084       .  S
C2627      C2628   1.412       .  A
C2628     Br2629   1.917       .  S
C2633      C2634   1.402       .  A
C2633      C2638   1.402       .  A
C2633      H2640   1.082       .  S
C2634      C2635   1.410       .  A
C2635      C2636   1.408       .  A
C2635     Br2642   1.916       .  S
C2636      C2637   1.406       .  A
C2636      H2641   1.083       .  S
C2637      C2638   1.412       .  A
C2638     Br2639   1.919       .  S
C2643      C2644   1.402       .  A
C2643      C2648   1.400       .  A
C2643      H2650   1.083       .  S
C2644      C2645   1.407       .  A
C2645      C2646   1.398       .  A
C2645     Br2652   1.919       .  S
C2646      C2647   1.403       .  A
C2646      H2651   1.084       .  S
C2647      C2648   1.407       .  A
C2648     Br2649   1.917       .  S
C2653      C2654   1.404       .  A
C2653      C2658   1.407       .  A
C2653      H2660   1.083       .  S
C2654      C2655   1.408       .  A
C2655      C2656   1.400       .  A
C2655     Br2662   1.918       .  S
C2656      C2657   1.405       .  A
C2656      H2661   1.084       .  S
C2657      C2658   1.413       .  A
C2658     Br2659   1.918       .  S
C2663      C2664   1.400       .  A
C2663      C2668   1.396       .  A
C2663      H2670   1.082       .  S
C2664      C2665   1.408       .  A
C2665      C2666   1.404       .  A
C2665     Br2672   1.917       .  S
C2666      C2667   1.405       .  A
C2666      H2671   1.083       .  S
C2667      C2668   1.409       .  A
C2668     Br2669   1.919       .  S
C2673      C2674   1.404       .  A
C2673      C2678   1.403       .  A
C2673      H2680   1.083       .  S
C2674      C2675   1.404       .  A
C2675      C2676   1.395       .  A
C2675     Br2682   1.918       .  S
C2676      C2677   1.406       .  A
C2676      H2681   1.083       .  S
C2677      C2678   1.413       .  A
C2678     Br2679   1.918       .  S
C2683      C2684   1.406       .  A
C2683      C2688   1.401       .  A
C2683      H2690   1.083       .  S
C2684      C2685   1.416       .  A
C2685      C2686   1.400       .  A
C2685     Br2692   1.922       .  S
C2686      C2687   1.400       .  A
C2686      H2691   1.084       .  S
C2687      C2688   1.407       .  A
C2688     Br2689   1.917       .  S
C2693      C2694   1.404       .  A
C2693      C2698   1.404       .  A
C2693      H2700   1.083       .  S
C2694      C2695   1.407       .  A
C2695      C2696   1.397       .  A
C2695     Br2702   1.919       .  S
C2696      C2697   1.406       .  A
C2696      H2701   1.083       .  S
C2697      C2698   1.413       .  A
C2698     Br2699   1.917       .  S
C2703      C2704   1.403       .  A
C2703      C2708   1.396       .  A
C2703      H2710   1.084       .  S
C2704      C2705   1.409       .  A
C2705      C2706   1.403       .  A
C2705     Br2712   1.917       .  S
C2706      C2707   1.403       .  A
C2706      H2711   1.083       .  S
C2707      C2708   1.407       .  A
C2708     Br2709   1.919       .  S
C2713      C2714   1.400       .  A
C2713      C2718   1.395       .  A
C2713      H2720   1.083       .  S
C2714      C2715   1.406       .  A
C2715      C2716   1.401       .  A
C2715     Br2722   1.916       .  S
C2716      C2717   1.404       .  A
C2716      H2721   1.083       .  S
C2717      C2718   1.410       .  A
C2718     Br2719   1.920       .  S
C2723      C2724   1.402       .  A
C2723      C2728   1.400       .  A
C2723      H2730   1.082       .  S
C2724      C2725   1.408       .  A
C2725      C2726   1.403       .  A
C2725     Br2732   1.918       .  S
C2726      C2727   1.405       .  A
C2726      H2731   1.083       .  S
C2727      C2728   1.412       .  A
C2728     Br2729   1.920       .  S
C2733      C2734   1.403       .  A
C2733      C2738   1.404       .  A
C2733      H2740   1.083       .  S
C2734      C2735   1.404       .  A
C2735      C2736   1.394       .  A
C2735     Br2742   1.917       .  S
C2736      C2737   1.405       .  A
C2736      H2741   1.083       .  S
C2737      C2738   1.414       .  A
C2738     Br2739   1.918       .  S
C2743      C2744   1.407       .  A
C2743      C2748   1.403       .  A
C2743      H2750   1.083       .  S
C2744      C2745   1.415       .  A
C2745      C2746   1.400       .  A
C2745     Br2752   1.921       .  S
C2746      C2747   1.400       .  A
C2746      H2751   1.084       .  S
C2747      C2748   1.407       .  A
C2748     Br2749   1.917       .  S
C2753      C2754   1.404       .  A
C2753      C2758   1.398       .  A
C2753      H2760   1.083       .  S
C2754      C2755   1.409       .  A
C2755      C2756   1.405       .  A
C2755     Br2762   1.916       .  S
C2756      C2757   1.405       .  A
C2756      H2761   1.083       .  S
C2757      C2758   1.408       .  A
C2758     Br2759   1.919       .  S
C2763      C2764   1.405       .  A
C2763      C2768   1.398       .  A
C2763      H2770   1.083       .  S
C2764      C2765   1.411       .  A
C2765      C2766   1.403       .  A
C2765     Br2772   1.918       .  S
C2766      C2767   1.404       .  A
C2766      H2771   1.083       .  S
C2767      C2768   1.407       .  A
C2768     Br2769   1.919       .  S
C2773      C2774   1.405       .  A
C2773      C2778   1.406       .  A
C2773      H2780   1.083       .  S
C2774      C2775   1.407       .  A
C2775      C2776   1.399       .  A
C2775     Br2782   1.916       .  S
C2776      C2777   1.406       .  A
C2776      H2781   1.083       .  S
C2777      C2778   1.414       .  A
C2778     Br2779   1.918       .  S
C2783      C2784   1.405       .  A
C2783      C2788   1.400       .  A
C2783      H2790   1.083       .  S
C2784      C2785   1.416       .  A
C2785      C2786   1.397       .  A
C2785     Br2792   1.923       .  S
C2786      C2787   1.398       .  A
C2786      H2791   1.084       .  S
C2787      C2788   1.406       .  A
C2788     Br2789   1.917       .  S
C2793      C2794   1.400       .  A
C2793      C2798   1.399       .  A
C2793      H2800   1.082       .  S
C2794      C2795   1.408       .  A
C2795      C2796   1.404       .  A
C2795     Br2802   1.916       .  S
C2796      C2797   1.404       .  A
C2796      H2801   1.083       .  S
C2797      C2798   1.413       .  A
C2798     Br2799   1.920       .  S
C2803      C2804   1.401       .  A
C2803      C2808   1.402       .  A
C2803      H2810   1.083       .  S
C2804      C2805   1.408       .  A
C2805      C2806   1.399       .  A
C2805     Br2812   1.919       .  S
C2806      C2807   1.404       .  A
C2806      H2811   1.084       .  S
C2807      C2808   1.412       .  A
C2808     Br2809   1.917       .  S
C2813      C2814   1.398       .  A
C2813      C2818   1.399       .  A
C2813      H2820   1.084       .  S
C2814      C2815   1.410       .  A
C2815      C2816   1.405       .  A
C2815     Br2822   1.918       .  S
C2816      C2817   1.406       .  A
C2816      H2821   1.083       .  S
C2817      C2818   1.418       .  A
C2818     Br2819   1.920       .  S
C2823      C2824   1.401       .  A
C2823      C2828   1.400       .  A
C2823      H2830   1.083       .  S
C2824      C2825   1.409       .  A
C2825      C2826   1.400       .  A
C2825     Br2832   1.917       .  S
C2826      C2827   1.404       .  A
C2826      H2831   1.083       .  S
C2827      C2828   1.414       .  A
C2828     Br2829   1.921       .  S
